LAMMPS (29 Sep 2021 - Update 2)
# 3d Lennard-Jones melt

variable    ave_one equal 500
variable    nintervals index 40
variable    mcmaxdispl index 0.1
variable    prodlength equal 500*40
variable    temperature index 2.0

units		lj
atom_style	atomic

lattice		sc 0.8442
Lattice spacing in x,y,z = 1.0580793 1.0580793 1.0580793
region		box block 0 5 0 5 0 5
create_box	1 box
Created orthogonal box = (0.0000000 0.0000000 0.0000000) to (5.2903965 5.2903965 5.2903965)
create_atoms	1 box
Created 125 atoms
mass		1 1.0

velocity	all create 3.0 87287

pair_style	lj/smooth 3.0 3.5
pair_coeff	1 1 1.0 1.0

neighbor	0.3 bin
neigh_modify	every 20 delay 0 check no

fix		1 all nve

thermo		500

thermo_style	custom step temp etotal press
run		2500
  update every 20 steps, delay 0 steps, check no
Step Temp TotEng Press
0            3   -1.0476854    3.9138214
Loop time of 1.18434 on 1 procs for 2500 steps with 125 atoms

fix		isokin all temp/rescale 20 2.0 2.0 0.02 1.0

run		50000
Step Temp TotEng Press
2500    2.2041144   -1.0538041    8.9278075
Averages over the last 51 of 101 rows, steps 27500 to 52500:
Temp TotEng Press
1.99964 -1.78891 6.9828
Loop time of 23.6925 on 1 procs for 50000 steps with 125 atoms

compute	p_all all pressure thermo_temp virial

unfix		isokin

thermo_style	custom step temp etotal press c_p_all
#=====Berendsen MD run====#
reset_timestep	0

fix		ave_p all ave/time 40 500 20000 c_p_all
unfix	1
fix		1 all nve
fix		2 all temp/berendsen 2.0 2.0  0.2

thermo		200

log		log.berendsen.txt
