LAMMPS (29 Sep 2021 - Update 2)
# 3d Lennard-Jones melt
units		lj
pair_style	lj/cut 2.5
atom_style	atomic
read_data "T01.4_nve.data"
Reading data file ...
  orthogonal box = (0.0000000 0.0000000 0.0000000) to (8.0180007 8.0180007 80.180007)
  reading atoms ...
  5000 atoms
  reading velocities ...
  5000 velocities

neighbor	0.3 bin
neigh_modify	every 20 delay 0 check no

dump		traj all custom 1000 dump_nph.data id x y z
fix 1 all nph aniso 6.48 6.48 1.0
thermo		500
run		200000
  update every 20 steps, delay 0 steps, check no
Step Temp E_pair E_mol TotEng Press Volume
0    1.0892971   -5.9094378            0   -4.2758189    6.4083449    5154.6392
Averages over the last 201 of 401 rows, steps 100000 to 200000:
Temp E_pair E_mol TotEng Press Volume
1.10233 -6.03763 0 -4.38447 6.48877 5092.7
Loop time of 799.941 on 1 procs for 200000 steps with 5000 atoms
