units		lj
atom_style	atomic

pair_style	lj/smooth 2.5 3.0

read_data       liquid.T1.4.rho0.67.data
Reading data file ...
  orthogonal box = (0.0000000 0.0000000 0.0000000) to (17.142191 17.142191 17.142191)
  reading atoms ...
  3375 atoms
  reading velocities ...
  3375 velocities

neighbor	0.3 bin
neigh_modify	every 20 delay 0 check no

fix		1 all nve

timestep	0.002

reset_timestep  0

compute		msd all msd
variable        msd_xyz equal c_msd[4]
variable        step0 equal step
variable        step0 equal 0
variable        dtime equal (step-0)*dt
variable        diffus equal v_msd_xyz/(6*(v_dtime+1e-12))
thermo_style	custom step time temp ke pe etotal press c_msd[4]
thermo          50

run		5000
  update every 20 steps, delay 0 steps, check no
Step Time Temp KinEng PotEng TotEng Press c_msd[4]
0            0    1.4018462    2.1021463   -4.2756494   -2.1735031     1.287015            0
Averages over the last 51 of 101 rows, steps 2500 to 5000:
Temp KinEng PotEng TotEng Press c_msd[4]
1.39392 2.09026 -4.26329 -2.17303 1.34651 7.52255
Loop time of 18.3933 on 1 procs for 5000 steps with 3375 atoms

Diffusivity estimate (MSD): 0.168536719444991

write_data      liquid.T1.4.rho0.67.data
System init for write_data ...
