units		lj
atom_style	atomic

timestep	0.002

lattice		sc 0.67 origin 0.5 0.5 0.5
Lattice spacing in x,y,z = 1.1428127 1.1428127 1.1428127
region		box block 0 15 0 15 0 15
create_box	1 box
Created orthogonal box = (0.0000000 0.0000000 0.0000000) to (17.142191 17.142191 17.142191)
create_atoms	1 box
Created 3375 atoms
mass		1 1.0

velocity	all create 1.5 87287 mom yes

pair_style	lj/smooth 2.5 3.0
pair_coeff	1 1 1.0 1.0

neighbor	0.3 bin
neigh_modify	every 20 delay 0 check no

fix		1 all nve

thermo		50
run		1000
  update every 20 steps, delay 0 steps, check no
Step Temp E_pair E_mol TotEng Press
0          1.5   -4.8699617            0   -2.6206284   -2.0806723
Averages over the last 11 of 21 rows, steps 500 to 1000:
Temp E_pair E_mol TotEng Press
1.19032 -4.38156 0 -2.59661 0.751849
Loop time of 3.61281 on 1 procs for 1000 steps with 3375 atoms

fix		2 all langevin 1.5 1.5 0.5 7162534 zero yes

run		2000
Step Temp E_pair E_mol TotEng Press
1000     1.198004    -4.393007            0   -2.5965335   0.71585848
Averages over the last 21 of 41 rows, steps 2000 to 3000:
Temp E_pair E_mol TotEng Press
1.4695 -4.22241 0 -2.01881 1.52542
Loop time of 7.61546 on 1 procs for 2000 steps with 3375 atoms

write_data      liquid.T1.5.rho0.67.data
System init for write_data ...
