units		lj
atom_style	atomic

timestep	0.002

lattice		sc 0.67 origin 0.5 0.5 0.5
Lattice spacing in x,y,z = 1.1428127 1.1428127 1.1428127
region		box block 0 15 0 15 0 15
create_box	1 box
Created orthogonal box = (0.0000000 0.0000000 0.0000000) to (17.142191 17.142191 17.142191)
create_atoms	1 box
Created 3375 atoms
mass		1 1.0

velocity	all create 1.4 87287 mom yes

pair_style	lj/smooth 2.5 3.0
pair_coeff	1 1 1.0 1.0

neighbor	0.3 bin
neigh_modify	every 20 delay 0 check no

fix		1 all nve

thermo		50
run		1000
  update every 20 steps, delay 0 steps, check no
Step Temp E_pair E_mol TotEng Press
0          1.4   -4.8699617            0    -2.770584   -2.1476525
Averages over the last 11 of 21 rows, steps 500 to 1000:
Temp E_pair E_mol TotEng Press
1.11395 -4.41706 0 -2.74662 0.568014
Loop time of 3.60894 on 1 procs for 1000 steps with 3375 atoms

fix		2 all langevin 1.4 1.4 0.5 7162534 zero yes

run		2000
Step Temp E_pair E_mol TotEng Press
1000    1.1280295   -4.4384116            0   -2.7468687   0.54033068
Averages over the last 21 of 41 rows, steps 2000 to 3000:
Temp E_pair E_mol TotEng Press
1.39277 -4.25918 0 -2.17065 1.32885
Loop time of 7.60781 on 1 procs for 2000 steps with 3375 atoms

write_data      liquid.T1.4.rho0.67.data
System init for write_data ...
