units		lj
atom_style	atomic

timestep	0.002

lattice		sc 0.61 origin 0.5 0.5 0.5
Lattice spacing in x,y,z = 1.1791165 1.1791165 1.1791165
region		box block 0 15 0 15 0 15
create_box	1 box
Created orthogonal box = (0.0000000 0.0000000 0.0000000) to (17.686748 17.686748 17.686748)
create_atoms	1 box
Created 3375 atoms
mass		1 1.0

velocity	all create 1.4 87287 mom yes

pair_style	lj/smooth 2.5 3.0
pair_coeff	1 1 1.0 1.0

neighbor	0.3 bin
neigh_modify	every 20 delay 0 check no

fix		1 all nve

thermo		50
run		1000
  update every 20 steps, delay 0 steps, check no
Step Temp E_pair E_mol TotEng Press
0          1.4   -4.4062983            0   -2.3069205   -2.2955215
Averages over the last 11 of 21 rows, steps 500 to 1000:
Temp E_pair E_mol TotEng Press
1.17659 -4.0182 0 -2.25384 0.390799
Loop time of 3.33518 on 1 procs for 1000 steps with 3375 atoms

fix		2 all langevin 1.4 1.4 0.5 7162534 zero yes

run		2000
Step Temp E_pair E_mol TotEng Press
1000    1.2060915   -4.0629642            0   -2.2543631    0.3312498
Averages over the last 21 of 41 rows, steps 2000 to 3000:
Temp E_pair E_mol TotEng Press
1.39505 -3.90292 0 -1.81097 0.876674
Loop time of 7.02477 on 1 procs for 2000 steps with 3375 atoms

write_data      liquid.T1.4.rho0.61.data
System init for write_data ...
