shell           rm log.vacf.T1.4.rho0.67.txt
units		lj
atom_style	atomic

variable        loop_counter loop 25
variable        diff_accum equal 0

label           loop
clear

pair_style	lj/smooth 2.5 3.0

read_data       liquid.T1.4.rho0.67.data
Reading data file ...
  orthogonal box = (0.0000000 0.0000000 0.0000000) to (17.142191 17.142191 17.142191)
  reading atoms ...
  3375 atoms
  reading velocities ...
  3375 velocities

neighbor	0.3 bin
neigh_modify	every 20 delay 0 check no

fix		1 all nve
timestep        0.002
thermo		50

reset_timestep  0
compute         myVACF all vacf

fix             fixVACF all vector 1 c_myVACF[4]
variable        diff_integ equal dt*trap(f_fixVACF)
variable        curVACF equal c_myVACF[4]

variable        step0 equal step
variable        step0 equal $(v_step0)
variable        step0 equal 0
variable        dtime equal (step-0)*dt
thermo_style	custom step time temp ke pe etotal press

run             2500
  update every 20 steps, delay 0 steps, check no
Step Time Temp KinEng PotEng TotEng Press
0            0    1.3862653    2.0787819   -4.2521128   -2.1733309    1.4010169
Averages over the last 26 of 51 rows, steps 1250 to 2500:
Temp KinEng PotEng TotEng Press
1.39056 2.08523 -4.25818 -2.17295 1.35705
Loop time of 9.23215 on 1 procs for 2500 steps with 3375 atoms

variable        diff_accum equal 0+0.561481064758896/(3*25)
unfix           fixVACF
write_data      liquid.T1.4.rho0.67.data
System init for write_data ...
print           "" append log.vacf.T1.4.rho0.67.txt screen no

next            loop_counter
jump            SELF loop
clear

pair_style	lj/smooth 2.5 3.0

read_data       liquid.T1.4.rho0.67.data
Reading data file ...
  orthogonal box = (0.0000000 0.0000000 0.0000000) to (17.142191 17.142191 17.142191)
  reading atoms ...
  3375 atoms
  reading velocities ...
  3375 velocities

neighbor	0.3 bin
neigh_modify	every 20 delay 0 check no

fix		1 all nve
timestep        0.002
thermo		50

reset_timestep  0
compute         myVACF all vacf

fix             fixVACF all vector 1 c_myVACF[4]
variable        diff_integ equal dt*trap(f_fixVACF)
variable        curVACF equal c_myVACF[4]

variable        step0 equal step
variable        step0 equal $(v_step0)
variable        step0 equal 0
variable        dtime equal (step-0)*dt
thermo_style	custom step time temp ke pe etotal press

run             2500
  update every 20 steps, delay 0 steps, check no
Step Time Temp KinEng PotEng TotEng Press
0            0      1.39262    2.0883111   -4.2615321    -2.173221    1.3573327
Averages over the last 26 of 51 rows, steps 1250 to 2500:
Temp KinEng PotEng TotEng Press
1.39343 2.08952 -4.2624 -2.17288 1.32946
Loop time of 9.4623 on 1 procs for 2500 steps with 3375 atoms

variable        diff_accum equal 0.00748641419678528+0.552620883464015/(3*25)
unfix           fixVACF
write_data      liquid.T1.4.rho0.67.data
System init for write_data ...
print           "" append log.vacf.T1.4.rho0.67.txt screen no

next            loop_counter
jump            SELF loop
clear

pair_style	lj/smooth 2.5 3.0

read_data       liquid.T1.4.rho0.67.data
Reading data file ...
  orthogonal box = (0.0000000 0.0000000 0.0000000) to (17.142191 17.142191 17.142191)
  reading atoms ...
  3375 atoms
  reading velocities ...
  3375 velocities

neighbor	0.3 bin
neigh_modify	every 20 delay 0 check no

fix		1 all nve
timestep        0.002
thermo		50

reset_timestep  0
compute         myVACF all vacf

fix             fixVACF all vector 1 c_myVACF[4]
variable        diff_integ equal dt*trap(f_fixVACF)
variable        curVACF equal c_myVACF[4]

variable        step0 equal step
variable        step0 equal $(v_step0)
variable        step0 equal 0
variable        dtime equal (step-0)*dt
thermo_style	custom step time temp ke pe etotal press

run             2500
  update every 20 steps, delay 0 steps, check no
Step Time Temp KinEng PotEng TotEng Press
0            0    1.3936447    2.0898476    -4.263045   -2.1731974    1.3863795
Averages over the last 26 of 51 rows, steps 1250 to 2500:
Temp KinEng PotEng TotEng Press
1.39325 2.08925 -4.26219 -2.17294 1.35831
Loop time of 9.23506 on 1 procs for 2500 steps with 3375 atoms

variable        diff_accum equal 0.0148546926429721+0.481545640430881/(3*25)
unfix           fixVACF
write_data      liquid.T1.4.rho0.67.data
System init for write_data ...
print           "" append log.vacf.T1.4.rho0.67.txt screen no

next            loop_counter
jump            SELF loop
clear

pair_style	lj/smooth 2.5 3.0

read_data       liquid.T1.4.rho0.67.data
Reading data file ...
  orthogonal box = (0.0000000 0.0000000 0.0000000) to (17.142191 17.142191 17.142191)
  reading atoms ...
  3375 atoms
  reading velocities ...
  3375 velocities

neighbor	0.3 bin
neigh_modify	every 20 delay 0 check no

fix		1 all nve
timestep        0.002
thermo		50

reset_timestep  0
compute         myVACF all vacf

fix             fixVACF all vector 1 c_myVACF[4]
variable        diff_integ equal dt*trap(f_fixVACF)
variable        curVACF equal c_myVACF[4]

variable        step0 equal step
variable        step0 equal $(v_step0)
variable        step0 equal 0
variable        dtime equal (step-0)*dt
thermo_style	custom step time temp ke pe etotal press

run             2500
  update every 20 steps, delay 0 steps, check no
Step Time Temp KinEng PotEng TotEng Press
0            0    1.3955894    2.0927639   -4.2659229    -2.173159    1.3854834
Averages over the last 26 of 51 rows, steps 1250 to 2500:
Temp KinEng PotEng TotEng Press
1.39661 2.09429 -4.26735 -2.17305 1.34051
Loop time of 9.18939 on 1 procs for 2500 steps with 3375 atoms

variable        diff_accum equal 0.0212753011820505+0.540043863932229/(3*25)
unfix           fixVACF
write_data      liquid.T1.4.rho0.67.data
System init for write_data ...
print           "" append log.vacf.T1.4.rho0.67.txt screen no

next            loop_counter
jump            SELF loop
clear

pair_style	lj/smooth 2.5 3.0

read_data       liquid.T1.4.rho0.67.data
Reading data file ...
  orthogonal box = (0.0000000 0.0000000 0.0000000) to (17.142191 17.142191 17.142191)
  reading atoms ...
  3375 atoms
  reading velocities ...
  3375 velocities

neighbor	0.3 bin
neigh_modify	every 20 delay 0 check no

fix		1 all nve
timestep        0.002
thermo		50

reset_timestep  0
compute         myVACF all vacf

fix             fixVACF all vector 1 c_myVACF[4]
variable        diff_integ equal dt*trap(f_fixVACF)
variable        curVACF equal c_myVACF[4]

variable        step0 equal step
variable        step0 equal $(v_step0)
variable        step0 equal 0
variable        dtime equal (step-0)*dt
thermo_style	custom step time temp ke pe etotal press

run             2500
  update every 20 steps, delay 0 steps, check no
Step Time Temp KinEng PotEng TotEng Press
0            0    1.4024137    2.1029972   -4.2756822    -2.172685    1.2864141
Averages over the last 26 of 51 rows, steps 1250 to 2500:
Temp KinEng PotEng TotEng Press
1.39434 2.09089 -4.26386 -2.17297 1.33086
Loop time of 9.20244 on 1 procs for 2500 steps with 3375 atoms

variable        diff_accum equal 0.0284758860344802+0.485461004391547/(3*25)
unfix           fixVACF
write_data      liquid.T1.4.rho0.67.data
System init for write_data ...
print           "" append log.vacf.T1.4.rho0.67.txt screen no

next            loop_counter
jump            SELF loop
clear

pair_style	lj/smooth 2.5 3.0

read_data       liquid.T1.4.rho0.67.data
Reading data file ...
  orthogonal box = (0.0000000 0.0000000 0.0000000) to (17.142191 17.142191 17.142191)
  reading atoms ...
  3375 atoms
  reading velocities ...
  3375 velocities

neighbor	0.3 bin
neigh_modify	every 20 delay 0 check no

fix		1 all nve
timestep        0.002
thermo		50

reset_timestep  0
compute         myVACF all vacf

fix             fixVACF all vector 1 c_myVACF[4]
variable        diff_integ equal dt*trap(f_fixVACF)
variable        curVACF equal c_myVACF[4]

variable        step0 equal step
variable        step0 equal $(v_step0)
variable        step0 equal 0
variable        dtime equal (step-0)*dt
thermo_style	custom step time temp ke pe etotal press

run             2500
  update every 20 steps, delay 0 steps, check no
Step Time Temp KinEng PotEng TotEng Press
0            0    1.3852158    2.0772081   -4.2502226   -2.1730145    1.3662377
Averages over the last 26 of 51 rows, steps 1250 to 2500:
Temp KinEng PotEng TotEng Press
1.39503 2.09193 -4.26478 -2.17285 1.33766
Loop time of 9.21648 on 1 procs for 2500 steps with 3375 atoms

variable        diff_accum equal 0.0349486994263675+0.501705055087558/(3*25)
unfix           fixVACF
write_data      liquid.T1.4.rho0.67.data
System init for write_data ...
print           "" append log.vacf.T1.4.rho0.67.txt screen no

next            loop_counter
jump            SELF loop
clear

pair_style	lj/smooth 2.5 3.0

read_data       liquid.T1.4.rho0.67.data
Reading data file ...
  orthogonal box = (0.0000000 0.0000000 0.0000000) to (17.142191 17.142191 17.142191)
  reading atoms ...
  3375 atoms
  reading velocities ...
  3375 velocities

neighbor	0.3 bin
neigh_modify	every 20 delay 0 check no

fix		1 all nve
timestep        0.002
thermo		50

reset_timestep  0
compute         myVACF all vacf

fix             fixVACF all vector 1 c_myVACF[4]
variable        diff_integ equal dt*trap(f_fixVACF)
variable        curVACF equal c_myVACF[4]

variable        step0 equal step
variable        step0 equal $(v_step0)
variable        step0 equal 0
variable        dtime equal (step-0)*dt
thermo_style	custom step time temp ke pe etotal press

run             2500
  update every 20 steps, delay 0 steps, check no
Step Time Temp KinEng PotEng TotEng Press
0            0    1.4109809    2.1158443   -4.2886987   -2.1728544    1.2216968
Averages over the last 26 of 51 rows, steps 1250 to 2500:
Temp KinEng PotEng TotEng Press
1.39891 2.09775 -4.27053 -2.17279 1.31506
Loop time of 9.2366 on 1 procs for 2500 steps with 3375 atoms

variable        diff_accum equal 0.0416381001608683+0.50540642480641/(3*25)
unfix           fixVACF
write_data      liquid.T1.4.rho0.67.data
System init for write_data ...
print           "" append log.vacf.T1.4.rho0.67.txt screen no

next            loop_counter
jump            SELF loop
clear

pair_style	lj/smooth 2.5 3.0

read_data       liquid.T1.4.rho0.67.data
Reading data file ...
  orthogonal box = (0.0000000 0.0000000 0.0000000) to (17.142191 17.142191 17.142191)
  reading atoms ...
  3375 atoms
  reading velocities ...
  3375 velocities

neighbor	0.3 bin
neigh_modify	every 20 delay 0 check no

fix		1 all nve
timestep        0.002
thermo		50

reset_timestep  0
compute         myVACF all vacf

fix             fixVACF all vector 1 c_myVACF[4]
variable        diff_integ equal dt*trap(f_fixVACF)
variable        curVACF equal c_myVACF[4]

variable        step0 equal step
variable        step0 equal $(v_step0)
variable        step0 equal 0
variable        dtime equal (step-0)*dt
thermo_style	custom step time temp ke pe etotal press

run             2500
  update every 20 steps, delay 0 steps, check no
Step Time Temp KinEng PotEng TotEng Press
0            0     1.400108    2.0995398   -4.2720176   -2.1724778    1.2910149
Averages over the last 26 of 51 rows, steps 1250 to 2500:
Temp KinEng PotEng TotEng Press
1.398 2.09638 -4.26931 -2.17293 1.32429
Loop time of 9.29141 on 1 procs for 2500 steps with 3375 atoms

variable        diff_accum equal 0.0483768524916204+0.606813487757595/(3*25)
unfix           fixVACF
write_data      liquid.T1.4.rho0.67.data
System init for write_data ...
print           "" append log.vacf.T1.4.rho0.67.txt screen no

next            loop_counter
jump            SELF loop
clear

pair_style	lj/smooth 2.5 3.0

read_data       liquid.T1.4.rho0.67.data
Reading data file ...
  orthogonal box = (0.0000000 0.0000000 0.0000000) to (17.142191 17.142191 17.142191)
  reading atoms ...
  3375 atoms
  reading velocities ...
  3375 velocities

neighbor	0.3 bin
neigh_modify	every 20 delay 0 check no

fix		1 all nve
timestep        0.002
thermo		50

reset_timestep  0
compute         myVACF all vacf

fix             fixVACF all vector 1 c_myVACF[4]
variable        diff_integ equal dt*trap(f_fixVACF)
variable        curVACF equal c_myVACF[4]

variable        step0 equal step
variable        step0 equal $(v_step0)
variable        step0 equal 0
variable        dtime equal (step-0)*dt
thermo_style	custom step time temp ke pe etotal press

run             2500
  update every 20 steps, delay 0 steps, check no
Step Time Temp KinEng PotEng TotEng Press
0            0    1.4137654    2.1200198   -4.2923709   -2.1723511    1.2432681
Averages over the last 26 of 51 rows, steps 1250 to 2500:
Temp KinEng PotEng TotEng Press
1.39761 2.09579 -4.26884 -2.17304 1.33678
Loop time of 9.24345 on 1 procs for 2500 steps with 3375 atoms

variable        diff_accum equal 0.056467698995055+0.56976803556724/(3*25)
unfix           fixVACF
write_data      liquid.T1.4.rho0.67.data
System init for write_data ...
print           "" append log.vacf.T1.4.rho0.67.txt screen no

next            loop_counter
jump            SELF loop
clear

pair_style	lj/smooth 2.5 3.0

read_data       liquid.T1.4.rho0.67.data
Reading data file ...
  orthogonal box = (0.0000000 0.0000000 0.0000000) to (17.142191 17.142191 17.142191)
  reading atoms ...
  3375 atoms
  reading velocities ...
  3375 velocities

neighbor	0.3 bin
neigh_modify	every 20 delay 0 check no

fix		1 all nve
timestep        0.002
thermo		50

reset_timestep  0
compute         myVACF all vacf

fix             fixVACF all vector 1 c_myVACF[4]
variable        diff_integ equal dt*trap(f_fixVACF)
variable        curVACF equal c_myVACF[4]

variable        step0 equal step
variable        step0 equal $(v_step0)
variable        step0 equal 0
variable        dtime equal (step-0)*dt
thermo_style	custom step time temp ke pe etotal press

run             2500
  update every 20 steps, delay 0 steps, check no
Step Time Temp KinEng PotEng TotEng Press
0            0    1.4006716    2.1003849   -4.2731009    -2.172716    1.3113098
Averages over the last 26 of 51 rows, steps 1250 to 2500:
Temp KinEng PotEng TotEng Press
1.39457 2.09123 -4.26408 -2.17285 1.34655
Loop time of 9.2491 on 1 procs for 2500 steps with 3375 atoms

variable        diff_accum equal 0.0640646061359515+0.532223162972475/(3*25)
unfix           fixVACF
write_data      liquid.T1.4.rho0.67.data
System init for write_data ...
print           "" append log.vacf.T1.4.rho0.67.txt screen no

next            loop_counter
jump            SELF loop
clear

pair_style	lj/smooth 2.5 3.0

read_data       liquid.T1.4.rho0.67.data
Reading data file ...
  orthogonal box = (0.0000000 0.0000000 0.0000000) to (17.142191 17.142191 17.142191)
  reading atoms ...
  3375 atoms
  reading velocities ...
  3375 velocities

neighbor	0.3 bin
neigh_modify	every 20 delay 0 check no

fix		1 all nve
timestep        0.002
thermo		50

reset_timestep  0
compute         myVACF all vacf

fix             fixVACF all vector 1 c_myVACF[4]
variable        diff_integ equal dt*trap(f_fixVACF)
variable        curVACF equal c_myVACF[4]

variable        step0 equal step
variable        step0 equal $(v_step0)
variable        step0 equal 0
variable        dtime equal (step-0)*dt
thermo_style	custom step time temp ke pe etotal press

run             2500
  update every 20 steps, delay 0 steps, check no
Step Time Temp KinEng PotEng TotEng Press
0            0    1.3825393    2.0731945    -4.245522   -2.1723275    1.3737337
Averages over the last 26 of 51 rows, steps 1250 to 2500:
Temp KinEng PotEng TotEng Press
1.39511 2.09204 -4.26509 -2.17304 1.33571
Loop time of 9.19412 on 1 procs for 2500 steps with 3375 atoms

variable        diff_accum equal 0.0711609149755845+0.608057377633463/(3*25)
unfix           fixVACF
write_data      liquid.T1.4.rho0.67.data
System init for write_data ...
print           "" append log.vacf.T1.4.rho0.67.txt screen no

next            loop_counter
jump            SELF loop
clear

pair_style	lj/smooth 2.5 3.0

read_data       liquid.T1.4.rho0.67.data
Reading data file ...
  orthogonal box = (0.0000000 0.0000000 0.0000000) to (17.142191 17.142191 17.142191)
  reading atoms ...
  3375 atoms
  reading velocities ...
  3375 velocities

neighbor	0.3 bin
neigh_modify	every 20 delay 0 check no

fix		1 all nve
timestep        0.002
thermo		50

reset_timestep  0
compute         myVACF all vacf

fix             fixVACF all vector 1 c_myVACF[4]
variable        diff_integ equal dt*trap(f_fixVACF)
variable        curVACF equal c_myVACF[4]

variable        step0 equal step
variable        step0 equal $(v_step0)
variable        step0 equal 0
variable        dtime equal (step-0)*dt
thermo_style	custom step time temp ke pe etotal press

run             2500
  update every 20 steps, delay 0 steps, check no
Step Time Temp KinEng PotEng TotEng Press
0            0    1.3717062    2.0569497    -4.230008   -2.1730583    1.4281741
Averages over the last 26 of 51 rows, steps 1250 to 2500:
Temp KinEng PotEng TotEng Press
1.39174 2.087 -4.25989 -2.1729 1.34954
Loop time of 9.21732 on 1 procs for 2500 steps with 3375 atoms

variable        diff_accum equal 0.079268346677364+0.499332987782374/(3*25)
unfix           fixVACF
write_data      liquid.T1.4.rho0.67.data
System init for write_data ...
print           "" append log.vacf.T1.4.rho0.67.txt screen no

next            loop_counter
jump            SELF loop
clear

pair_style	lj/smooth 2.5 3.0

read_data       liquid.T1.4.rho0.67.data
Reading data file ...
  orthogonal box = (0.0000000 0.0000000 0.0000000) to (17.142191 17.142191 17.142191)
  reading atoms ...
  3375 atoms
  reading velocities ...
  3375 velocities

neighbor	0.3 bin
neigh_modify	every 20 delay 0 check no

fix		1 all nve
timestep        0.002
thermo		50

reset_timestep  0
compute         myVACF all vacf

fix             fixVACF all vector 1 c_myVACF[4]
variable        diff_integ equal dt*trap(f_fixVACF)
variable        curVACF equal c_myVACF[4]

variable        step0 equal step
variable        step0 equal $(v_step0)
variable        step0 equal 0
variable        dtime equal (step-0)*dt
thermo_style	custom step time temp ke pe etotal press

run             2500
  update every 20 steps, delay 0 steps, check no
Step Time Temp KinEng PotEng TotEng Press
0            0    1.3963542    2.0939107   -4.2664715   -2.1725608    1.3578067
Averages over the last 26 of 51 rows, steps 1250 to 2500:
Temp KinEng PotEng TotEng Press
1.39458 2.09125 -4.26418 -2.17293 1.35149
Loop time of 9.17899 on 1 procs for 2500 steps with 3375 atoms

variable        diff_accum equal 0.0859261198477957+0.507067699247829/(3*25)
unfix           fixVACF
write_data      liquid.T1.4.rho0.67.data
System init for write_data ...
print           "" append log.vacf.T1.4.rho0.67.txt screen no

next            loop_counter
jump            SELF loop
clear

pair_style	lj/smooth 2.5 3.0

read_data       liquid.T1.4.rho0.67.data
Reading data file ...
  orthogonal box = (0.0000000 0.0000000 0.0000000) to (17.142191 17.142191 17.142191)
  reading atoms ...
  3375 atoms
  reading velocities ...
  3375 velocities

neighbor	0.3 bin
neigh_modify	every 20 delay 0 check no

fix		1 all nve
timestep        0.002
thermo		50

reset_timestep  0
compute         myVACF all vacf

fix             fixVACF all vector 1 c_myVACF[4]
variable        diff_integ equal dt*trap(f_fixVACF)
variable        curVACF equal c_myVACF[4]

variable        step0 equal step
variable        step0 equal $(v_step0)
variable        step0 equal 0
variable        dtime equal (step-0)*dt
thermo_style	custom step time temp ke pe etotal press

run             2500
  update every 20 steps, delay 0 steps, check no
Step Time Temp KinEng PotEng TotEng Press
0            0     1.391528    2.0866736   -4.2600777   -2.1734041    1.3700077
Averages over the last 26 of 51 rows, steps 1250 to 2500:
Temp KinEng PotEng TotEng Press
1.39479 2.09156 -4.26444 -2.17287 1.33622
Loop time of 9.29061 on 1 procs for 2500 steps with 3375 atoms

variable        diff_accum equal 0.0926870225044334+0.539030768202241/(3*25)
unfix           fixVACF
write_data      liquid.T1.4.rho0.67.data
System init for write_data ...
print           "" append log.vacf.T1.4.rho0.67.txt screen no

next            loop_counter
jump            SELF loop
clear

pair_style	lj/smooth 2.5 3.0

read_data       liquid.T1.4.rho0.67.data
Reading data file ...
  orthogonal box = (0.0000000 0.0000000 0.0000000) to (17.142191 17.142191 17.142191)
  reading atoms ...
  3375 atoms
  reading velocities ...
  3375 velocities

neighbor	0.3 bin
neigh_modify	every 20 delay 0 check no

fix		1 all nve
timestep        0.002
thermo		50

reset_timestep  0
compute         myVACF all vacf

fix             fixVACF all vector 1 c_myVACF[4]
variable        diff_integ equal dt*trap(f_fixVACF)
variable        curVACF equal c_myVACF[4]

variable        step0 equal step
variable        step0 equal $(v_step0)
variable        step0 equal 0
variable        dtime equal (step-0)*dt
thermo_style	custom step time temp ke pe etotal press

run             2500
  update every 20 steps, delay 0 steps, check no
Step Time Temp KinEng PotEng TotEng Press
0            0    1.3790763    2.0680016   -4.2408362   -2.1728346    1.4177065
Averages over the last 26 of 51 rows, steps 1250 to 2500:
Temp KinEng PotEng TotEng Press
1.39724 2.09524 -4.26817 -2.17294 1.31531
Loop time of 9.1827 on 1 procs for 2500 steps with 3375 atoms

variable        diff_accum equal 0.0998740994137966+0.533224525438942/(3*25)
unfix           fixVACF
write_data      liquid.T1.4.rho0.67.data
System init for write_data ...
print           "" append log.vacf.T1.4.rho0.67.txt screen no

next            loop_counter
jump            SELF loop
clear

pair_style	lj/smooth 2.5 3.0

read_data       liquid.T1.4.rho0.67.data
Reading data file ...
  orthogonal box = (0.0000000 0.0000000 0.0000000) to (17.142191 17.142191 17.142191)
  reading atoms ...
  3375 atoms
  reading velocities ...
  3375 velocities

neighbor	0.3 bin
neigh_modify	every 20 delay 0 check no

fix		1 all nve
timestep        0.002
thermo		50

reset_timestep  0
compute         myVACF all vacf

fix             fixVACF all vector 1 c_myVACF[4]
variable        diff_integ equal dt*trap(f_fixVACF)
variable        curVACF equal c_myVACF[4]

variable        step0 equal step
variable        step0 equal $(v_step0)
variable        step0 equal 0
variable        dtime equal (step-0)*dt
thermo_style	custom step time temp ke pe etotal press

run             2500
  update every 20 steps, delay 0 steps, check no
Step Time Temp KinEng PotEng TotEng Press
0            0    1.3943626    2.0909241   -4.2638278   -2.1729037    1.3183239
Averages over the last 26 of 51 rows, steps 1250 to 2500:
Temp KinEng PotEng TotEng Press
1.39492 2.09176 -4.2647 -2.17294 1.33636
Loop time of 9.16028 on 1 procs for 2500 steps with 3375 atoms

variable        diff_accum equal 0.106983759752982+0.571823117374642/(3*25)
unfix           fixVACF
write_data      liquid.T1.4.rho0.67.data
System init for write_data ...
print           "" append log.vacf.T1.4.rho0.67.txt screen no

next            loop_counter
jump            SELF loop
clear

pair_style	lj/smooth 2.5 3.0

read_data       liquid.T1.4.rho0.67.data
Reading data file ...
  orthogonal box = (0.0000000 0.0000000 0.0000000) to (17.142191 17.142191 17.142191)
  reading atoms ...
  3375 atoms
  reading velocities ...
  3375 velocities

neighbor	0.3 bin
neigh_modify	every 20 delay 0 check no

fix		1 all nve
timestep        0.002
thermo		50

reset_timestep  0
compute         myVACF all vacf

fix             fixVACF all vector 1 c_myVACF[4]
variable        diff_integ equal dt*trap(f_fixVACF)
variable        curVACF equal c_myVACF[4]

variable        step0 equal step
variable        step0 equal $(v_step0)
variable        step0 equal 0
variable        dtime equal (step-0)*dt
thermo_style	custom step time temp ke pe etotal press

run             2500
  update every 20 steps, delay 0 steps, check no
Step Time Temp KinEng PotEng TotEng Press
0            0    1.3895666    2.0837323   -4.2569205   -2.1731882    1.4019894
Averages over the last 26 of 51 rows, steps 1250 to 2500:
Temp KinEng PotEng TotEng Press
1.39504 2.09195 -4.26505 -2.1731 1.33949
Loop time of 9.14538 on 1 procs for 2500 steps with 3375 atoms

variable        diff_accum equal 0.114608067984644+0.530933890397323/(3*25)
unfix           fixVACF
write_data      liquid.T1.4.rho0.67.data
System init for write_data ...
print           "" append log.vacf.T1.4.rho0.67.txt screen no

next            loop_counter
jump            SELF loop
clear

pair_style	lj/smooth 2.5 3.0

read_data       liquid.T1.4.rho0.67.data
Reading data file ...
  orthogonal box = (0.0000000 0.0000000 0.0000000) to (17.142191 17.142191 17.142191)
  reading atoms ...
  3375 atoms
  reading velocities ...
  3375 velocities

neighbor	0.3 bin
neigh_modify	every 20 delay 0 check no

fix		1 all nve
timestep        0.002
thermo		50

reset_timestep  0
compute         myVACF all vacf

fix             fixVACF all vector 1 c_myVACF[4]
variable        diff_integ equal dt*trap(f_fixVACF)
variable        curVACF equal c_myVACF[4]

variable        step0 equal step
variable        step0 equal $(v_step0)
variable        step0 equal 0
variable        dtime equal (step-0)*dt
thermo_style	custom step time temp ke pe etotal press

run             2500
  update every 20 steps, delay 0 steps, check no
Step Time Temp KinEng PotEng TotEng Press
0            0     1.387007    2.0798941   -4.2528897   -2.1729956    1.3784032
Averages over the last 26 of 51 rows, steps 1250 to 2500:
Temp KinEng PotEng TotEng Press
1.39615 2.0936 -4.26655 -2.17295 1.33721
Loop time of 9.15691 on 1 procs for 2500 steps with 3375 atoms

variable        diff_accum equal 0.121687186523275+0.548789863543306/(3*25)
unfix           fixVACF
write_data      liquid.T1.4.rho0.67.data
System init for write_data ...
print           "" append log.vacf.T1.4.rho0.67.txt screen no

next            loop_counter
jump            SELF loop
clear

pair_style	lj/smooth 2.5 3.0

read_data       liquid.T1.4.rho0.67.data
Reading data file ...
  orthogonal box = (0.0000000 0.0000000 0.0000000) to (17.142191 17.142191 17.142191)
  reading atoms ...
  3375 atoms
  reading velocities ...
  3375 velocities

neighbor	0.3 bin
neigh_modify	every 20 delay 0 check no

fix		1 all nve
timestep        0.002
thermo		50

reset_timestep  0
compute         myVACF all vacf

fix             fixVACF all vector 1 c_myVACF[4]
variable        diff_integ equal dt*trap(f_fixVACF)
variable        curVACF equal c_myVACF[4]

variable        step0 equal step
variable        step0 equal $(v_step0)
variable        step0 equal 0
variable        dtime equal (step-0)*dt
thermo_style	custom step time temp ke pe etotal press

run             2500
  update every 20 steps, delay 0 steps, check no
Step Time Temp KinEng PotEng TotEng Press
0            0    1.3837564    2.0750196   -4.2476174   -2.1725977    1.3911844
Averages over the last 26 of 51 rows, steps 1250 to 2500:
Temp KinEng PotEng TotEng Press
1.39248 2.08811 -4.26117 -2.17306 1.36394
Loop time of 9.15772 on 1 procs for 2500 steps with 3375 atoms

variable        diff_accum equal 0.129004384703852+0.55017041013465/(3*25)
unfix           fixVACF
write_data      liquid.T1.4.rho0.67.data
System init for write_data ...
print           "" append log.vacf.T1.4.rho0.67.txt screen no

next            loop_counter
jump            SELF loop
clear

pair_style	lj/smooth 2.5 3.0

read_data       liquid.T1.4.rho0.67.data
Reading data file ...
  orthogonal box = (0.0000000 0.0000000 0.0000000) to (17.142191 17.142191 17.142191)
  reading atoms ...
  3375 atoms
  reading velocities ...
  3375 velocities

neighbor	0.3 bin
neigh_modify	every 20 delay 0 check no

fix		1 all nve
timestep        0.002
thermo		50

reset_timestep  0
compute         myVACF all vacf

fix             fixVACF all vector 1 c_myVACF[4]
variable        diff_integ equal dt*trap(f_fixVACF)
variable        curVACF equal c_myVACF[4]

variable        step0 equal step
variable        step0 equal $(v_step0)
variable        step0 equal 0
variable        dtime equal (step-0)*dt
thermo_style	custom step time temp ke pe etotal press

run             2500
  update every 20 steps, delay 0 steps, check no
Step Time Temp KinEng PotEng TotEng Press
0            0     1.385302    2.0773372   -4.2502414   -2.1729042    1.4084683
Averages over the last 26 of 51 rows, steps 1250 to 2500:
Temp KinEng PotEng TotEng Press
1.39364 2.08984 -4.26286 -2.17302 1.34288
Loop time of 9.16504 on 1 procs for 2500 steps with 3375 atoms

variable        diff_accum equal 0.136339990172314+0.509539202065609/(3*25)
unfix           fixVACF
write_data      liquid.T1.4.rho0.67.data
System init for write_data ...
print           "" append log.vacf.T1.4.rho0.67.txt screen no

next            loop_counter
jump            SELF loop
clear

pair_style	lj/smooth 2.5 3.0

read_data       liquid.T1.4.rho0.67.data
Reading data file ...
  orthogonal box = (0.0000000 0.0000000 0.0000000) to (17.142191 17.142191 17.142191)
  reading atoms ...
  3375 atoms
  reading velocities ...
  3375 velocities

neighbor	0.3 bin
neigh_modify	every 20 delay 0 check no

fix		1 all nve
timestep        0.002
thermo		50

reset_timestep  0
compute         myVACF all vacf

fix             fixVACF all vector 1 c_myVACF[4]
variable        diff_integ equal dt*trap(f_fixVACF)
variable        curVACF equal c_myVACF[4]

variable        step0 equal step
variable        step0 equal $(v_step0)
variable        step0 equal 0
variable        dtime equal (step-0)*dt
thermo_style	custom step time temp ke pe etotal press

run             2500
  update every 20 steps, delay 0 steps, check no
Step Time Temp KinEng PotEng TotEng Press
0            0    1.3942029    2.0906847   -4.2633764   -2.1726917    1.3690414
Averages over the last 26 of 51 rows, steps 1250 to 2500:
Temp KinEng PotEng TotEng Press
1.39582 2.09311 -4.26621 -2.17311 1.33685
Loop time of 9.15762 on 1 procs for 2500 steps with 3375 atoms

variable        diff_accum equal 0.143133846199855+0.51827462544411/(3*25)
unfix           fixVACF
write_data      liquid.T1.4.rho0.67.data
System init for write_data ...
print           "" append log.vacf.T1.4.rho0.67.txt screen no

next            loop_counter
jump            SELF loop
clear

pair_style	lj/smooth 2.5 3.0

read_data       liquid.T1.4.rho0.67.data
Reading data file ...
  orthogonal box = (0.0000000 0.0000000 0.0000000) to (17.142191 17.142191 17.142191)
  reading atoms ...
  3375 atoms
  reading velocities ...
  3375 velocities

neighbor	0.3 bin
neigh_modify	every 20 delay 0 check no

fix		1 all nve
timestep        0.002
thermo		50

reset_timestep  0
compute         myVACF all vacf

fix             fixVACF all vector 1 c_myVACF[4]
variable        diff_integ equal dt*trap(f_fixVACF)
variable        curVACF equal c_myVACF[4]

variable        step0 equal step
variable        step0 equal $(v_step0)
variable        step0 equal 0
variable        dtime equal (step-0)*dt
thermo_style	custom step time temp ke pe etotal press

run             2500
  update every 20 steps, delay 0 steps, check no
Step Time Temp KinEng PotEng TotEng Press
0            0    1.3999717    2.0993353   -4.2725063    -2.173171     1.269376
Averages over the last 26 of 51 rows, steps 1250 to 2500:
Temp KinEng PotEng TotEng Press
1.39251 2.08814 -4.26097 -2.17283 1.34748
Loop time of 9.14032 on 1 procs for 2500 steps with 3375 atoms

variable        diff_accum equal 0.15004417453911+0.52771326729805/(3*25)
unfix           fixVACF
write_data      liquid.T1.4.rho0.67.data
System init for write_data ...
print           "" append log.vacf.T1.4.rho0.67.txt screen no

next            loop_counter
jump            SELF loop
clear

pair_style	lj/smooth 2.5 3.0

read_data       liquid.T1.4.rho0.67.data
Reading data file ...
  orthogonal box = (0.0000000 0.0000000 0.0000000) to (17.142191 17.142191 17.142191)
  reading atoms ...
  3375 atoms
  reading velocities ...
  3375 velocities

neighbor	0.3 bin
neigh_modify	every 20 delay 0 check no

fix		1 all nve
timestep        0.002
thermo		50

reset_timestep  0
compute         myVACF all vacf

fix             fixVACF all vector 1 c_myVACF[4]
variable        diff_integ equal dt*trap(f_fixVACF)
variable        curVACF equal c_myVACF[4]

variable        step0 equal step
variable        step0 equal $(v_step0)
variable        step0 equal 0
variable        dtime equal (step-0)*dt
thermo_style	custom step time temp ke pe etotal press

run             2500
  update every 20 steps, delay 0 steps, check no
Step Time Temp KinEng PotEng TotEng Press
0            0    1.4005569    2.1002129   -4.2725998   -2.1723869    1.2945121
Averages over the last 26 of 51 rows, steps 1250 to 2500:
Temp KinEng PotEng TotEng Press
1.39563 2.09282 -4.26576 -2.17295 1.33173
Loop time of 9.15702 on 1 procs for 2500 steps with 3375 atoms

variable        diff_accum equal 0.157080351436417+0.531673058803522/(3*25)
unfix           fixVACF
write_data      liquid.T1.4.rho0.67.data
System init for write_data ...
print           "" append log.vacf.T1.4.rho0.67.txt screen no

next            loop_counter
jump            SELF loop
clear

pair_style	lj/smooth 2.5 3.0

read_data       liquid.T1.4.rho0.67.data
Reading data file ...
  orthogonal box = (0.0000000 0.0000000 0.0000000) to (17.142191 17.142191 17.142191)
  reading atoms ...
  3375 atoms
  reading velocities ...
  3375 velocities

neighbor	0.3 bin
neigh_modify	every 20 delay 0 check no

fix		1 all nve
timestep        0.002
thermo		50

reset_timestep  0
compute         myVACF all vacf

fix             fixVACF all vector 1 c_myVACF[4]
variable        diff_integ equal dt*trap(f_fixVACF)
variable        curVACF equal c_myVACF[4]

variable        step0 equal step
variable        step0 equal $(v_step0)
variable        step0 equal 0
variable        dtime equal (step-0)*dt
thermo_style	custom step time temp ke pe etotal press

run             2500
  update every 20 steps, delay 0 steps, check no
Step Time Temp KinEng PotEng TotEng Press
0            0    1.3995133     2.098648   -4.2718306   -2.1731826    1.2838672
Averages over the last 26 of 51 rows, steps 1250 to 2500:
Temp KinEng PotEng TotEng Press
1.39555 2.0927 -4.26577 -2.17307 1.33299
Loop time of 9.14029 on 1 procs for 2500 steps with 3375 atoms

variable        diff_accum equal 0.164169325553797+0.529220755494235/(3*25)
unfix           fixVACF
write_data      liquid.T1.4.rho0.67.data
System init for write_data ...
print           "" append log.vacf.T1.4.rho0.67.txt screen no

next            loop_counter
jump            SELF loop
clear

pair_style	lj/smooth 2.5 3.0

read_data       liquid.T1.4.rho0.67.data
Reading data file ...
  orthogonal box = (0.0000000 0.0000000 0.0000000) to (17.142191 17.142191 17.142191)
  reading atoms ...
  3375 atoms
  reading velocities ...
  3375 velocities

neighbor	0.3 bin
neigh_modify	every 20 delay 0 check no

fix		1 all nve
timestep        0.002
thermo		50

reset_timestep  0
compute         myVACF all vacf

fix             fixVACF all vector 1 c_myVACF[4]
variable        diff_integ equal dt*trap(f_fixVACF)
variable        curVACF equal c_myVACF[4]

variable        step0 equal step
variable        step0 equal $(v_step0)
variable        step0 equal 0
variable        dtime equal (step-0)*dt
thermo_style	custom step time temp ke pe etotal press

run             2500
  update every 20 steps, delay 0 steps, check no
Step Time Temp KinEng PotEng TotEng Press
0            0    1.3893966    2.0834775   -4.2567212   -2.1732437    1.3603479
Averages over the last 26 of 51 rows, steps 1250 to 2500:
Temp KinEng PotEng TotEng Press
1.39423 2.09073 -4.26372 -2.17299 1.34448
Loop time of 9.17447 on 1 procs for 2500 steps with 3375 atoms

variable        diff_accum equal 0.17122560229372+0.48667540229887/(3*25)
unfix           fixVACF
write_data      liquid.T1.4.rho0.67.data
System init for write_data ...
print           "" append log.vacf.T1.4.rho0.67.txt screen no

next            loop_counter
jump            SELF loop

Diffusivity estimate (GK): 0.177714607657705
