shell           rm log.vacf.T1.5.rho0.61.txt
units		lj
atom_style	atomic

variable        loop_counter loop 25
variable        diff_accum equal 0

label           loop
clear

pair_style	lj/smooth 2.5 3.0

read_data       liquid.T1.5.rho0.61.data
Reading data file ...
  orthogonal box = (0.0000000 0.0000000 0.0000000) to (17.686748 17.686748 17.686748)
  reading atoms ...
  3375 atoms
  reading velocities ...
  3375 velocities

neighbor	0.3 bin
neigh_modify	every 20 delay 0 check no

fix		1 all nve
timestep        0.002
thermo		50

reset_timestep  0
compute         myVACF all vacf

fix             fixVACF all vector 1 c_myVACF[4]
variable        diff_integ equal dt*trap(f_fixVACF)
variable        curVACF equal c_myVACF[4]

variable        step0 equal step
variable        step0 equal $(v_step0)
variable        step0 equal 0
variable        dtime equal (step-0)*dt
thermo_style	custom step time temp ke pe etotal press

run             2500
  update every 20 steps, delay 0 steps, check no
Step Time Temp KinEng PotEng TotEng Press
0            0    1.4955812    2.2427071   -3.8478122    -1.605105    1.0415995
Averages over the last 26 of 51 rows, steps 1250 to 2500:
Temp KinEng PotEng TotEng Press
1.50029 2.24976 -3.85571 -1.60595 1.10968
Loop time of 8.52558 on 1 procs for 2500 steps with 3375 atoms

variable        diff_accum equal 0+0.723524607770357/(3*25)
unfix           fixVACF
write_data      liquid.T1.5.rho0.61.data
System init for write_data ...
print           "" append log.vacf.T1.5.rho0.61.txt screen no

next            loop_counter
jump            SELF loop
clear

pair_style	lj/smooth 2.5 3.0

read_data       liquid.T1.5.rho0.61.data
Reading data file ...
  orthogonal box = (0.0000000 0.0000000 0.0000000) to (17.686748 17.686748 17.686748)
  reading atoms ...
  3375 atoms
  reading velocities ...
  3375 velocities

neighbor	0.3 bin
neigh_modify	every 20 delay 0 check no

fix		1 all nve
timestep        0.002
thermo		50

reset_timestep  0
compute         myVACF all vacf

fix             fixVACF all vector 1 c_myVACF[4]
variable        diff_integ equal dt*trap(f_fixVACF)
variable        curVACF equal c_myVACF[4]

variable        step0 equal step
variable        step0 equal $(v_step0)
variable        step0 equal 0
variable        dtime equal (step-0)*dt
thermo_style	custom step time temp ke pe etotal press

run             2500
  update every 20 steps, delay 0 steps, check no
Step Time Temp KinEng PotEng TotEng Press
0            0      1.50337    2.2543868   -3.8606702   -1.6062833    1.0643126
Averages over the last 26 of 51 rows, steps 1250 to 2500:
Temp KinEng PotEng TotEng Press
1.50024 2.2497 -3.85537 -1.60567 1.10934
Loop time of 8.74807 on 1 procs for 2500 steps with 3375 atoms

variable        diff_accum equal 0.00964699477027143+0.634780087738978/(3*25)
unfix           fixVACF
write_data      liquid.T1.5.rho0.61.data
System init for write_data ...
print           "" append log.vacf.T1.5.rho0.61.txt screen no

next            loop_counter
jump            SELF loop
clear

pair_style	lj/smooth 2.5 3.0

read_data       liquid.T1.5.rho0.61.data
Reading data file ...
  orthogonal box = (0.0000000 0.0000000 0.0000000) to (17.686748 17.686748 17.686748)
  reading atoms ...
  3375 atoms
  reading velocities ...
  3375 velocities

neighbor	0.3 bin
neigh_modify	every 20 delay 0 check no

fix		1 all nve
timestep        0.002
thermo		50

reset_timestep  0
compute         myVACF all vacf

fix             fixVACF all vector 1 c_myVACF[4]
variable        diff_integ equal dt*trap(f_fixVACF)
variable        curVACF equal c_myVACF[4]

variable        step0 equal step
variable        step0 equal $(v_step0)
variable        step0 equal 0
variable        dtime equal (step-0)*dt
thermo_style	custom step time temp ke pe etotal press

run             2500
  update every 20 steps, delay 0 steps, check no
Step Time Temp KinEng PotEng TotEng Press
0            0    1.4865483    2.2291618   -3.8350233   -1.6058615    1.2172203
Averages over the last 26 of 51 rows, steps 1250 to 2500:
Temp KinEng PotEng TotEng Press
1.5006 2.25023 -3.85595 -1.60572 1.07923
Loop time of 8.54618 on 1 procs for 2500 steps with 3375 atoms

variable        diff_accum equal 0.0181107292734578+0.675694623994661/(3*25)
unfix           fixVACF
write_data      liquid.T1.5.rho0.61.data
System init for write_data ...
print           "" append log.vacf.T1.5.rho0.61.txt screen no

next            loop_counter
jump            SELF loop
clear

pair_style	lj/smooth 2.5 3.0

read_data       liquid.T1.5.rho0.61.data
Reading data file ...
  orthogonal box = (0.0000000 0.0000000 0.0000000) to (17.686748 17.686748 17.686748)
  reading atoms ...
  3375 atoms
  reading velocities ...
  3375 velocities

neighbor	0.3 bin
neigh_modify	every 20 delay 0 check no

fix		1 all nve
timestep        0.002
thermo		50

reset_timestep  0
compute         myVACF all vacf

fix             fixVACF all vector 1 c_myVACF[4]
variable        diff_integ equal dt*trap(f_fixVACF)
variable        curVACF equal c_myVACF[4]

variable        step0 equal step
variable        step0 equal $(v_step0)
variable        step0 equal 0
variable        dtime equal (step-0)*dt
thermo_style	custom step time temp ke pe etotal press

run             2500
  update every 20 steps, delay 0 steps, check no
Step Time Temp KinEng PotEng TotEng Press
0            0    1.5121981     2.267625   -3.8732473   -1.6056223    1.0376704
Averages over the last 26 of 51 rows, steps 1250 to 2500:
Temp KinEng PotEng TotEng Press
1.49804 2.24639 -3.85212 -1.60573 1.10172
Loop time of 8.50344 on 1 procs for 2500 steps with 3375 atoms

variable        diff_accum equal 0.0271199909267199+0.768997828101778/(3*25)
unfix           fixVACF
write_data      liquid.T1.5.rho0.61.data
System init for write_data ...
print           "" append log.vacf.T1.5.rho0.61.txt screen no

next            loop_counter
jump            SELF loop
clear

pair_style	lj/smooth 2.5 3.0

read_data       liquid.T1.5.rho0.61.data
Reading data file ...
  orthogonal box = (0.0000000 0.0000000 0.0000000) to (17.686748 17.686748 17.686748)
  reading atoms ...
  3375 atoms
  reading velocities ...
  3375 velocities

neighbor	0.3 bin
neigh_modify	every 20 delay 0 check no

fix		1 all nve
timestep        0.002
thermo		50

reset_timestep  0
compute         myVACF all vacf

fix             fixVACF all vector 1 c_myVACF[4]
variable        diff_integ equal dt*trap(f_fixVACF)
variable        curVACF equal c_myVACF[4]

variable        step0 equal step
variable        step0 equal $(v_step0)
variable        step0 equal 0
variable        dtime equal (step-0)*dt
thermo_style	custom step time temp ke pe etotal press

run             2500
  update every 20 steps, delay 0 steps, check no
Step Time Temp KinEng PotEng TotEng Press
0            0    1.4844602    2.2260305   -3.8317371   -1.6057066    1.2011605
Averages over the last 26 of 51 rows, steps 1250 to 2500:
Temp KinEng PotEng TotEng Press
1.49917 2.24808 -3.85376 -1.60568 1.07792
Loop time of 8.52178 on 1 procs for 2500 steps with 3375 atoms

variable        diff_accum equal 0.0373732953014103+0.73077507913114/(3*25)
unfix           fixVACF
write_data      liquid.T1.5.rho0.61.data
System init for write_data ...
print           "" append log.vacf.T1.5.rho0.61.txt screen no

next            loop_counter
jump            SELF loop
clear

pair_style	lj/smooth 2.5 3.0

read_data       liquid.T1.5.rho0.61.data
Reading data file ...
  orthogonal box = (0.0000000 0.0000000 0.0000000) to (17.686748 17.686748 17.686748)
  reading atoms ...
  3375 atoms
  reading velocities ...
  3375 velocities

neighbor	0.3 bin
neigh_modify	every 20 delay 0 check no

fix		1 all nve
timestep        0.002
thermo		50

reset_timestep  0
compute         myVACF all vacf

fix             fixVACF all vector 1 c_myVACF[4]
variable        diff_integ equal dt*trap(f_fixVACF)
variable        curVACF equal c_myVACF[4]

variable        step0 equal step
variable        step0 equal $(v_step0)
variable        step0 equal 0
variable        dtime equal (step-0)*dt
thermo_style	custom step time temp ke pe etotal press

run             2500
  update every 20 steps, delay 0 steps, check no
Step Time Temp KinEng PotEng TotEng Press
0            0    1.4884807    2.2320595   -3.8376312   -1.6055717     1.115414
Averages over the last 26 of 51 rows, steps 1250 to 2500:
Temp KinEng PotEng TotEng Press
1.49973 2.24893 -3.85465 -1.60571 1.10238
Loop time of 8.563 on 1 procs for 2500 steps with 3375 atoms

variable        diff_accum equal 0.0471169630231588+0.691790928078178/(3*25)
unfix           fixVACF
write_data      liquid.T1.5.rho0.61.data
System init for write_data ...
print           "" append log.vacf.T1.5.rho0.61.txt screen no

next            loop_counter
jump            SELF loop
clear

pair_style	lj/smooth 2.5 3.0

read_data       liquid.T1.5.rho0.61.data
Reading data file ...
  orthogonal box = (0.0000000 0.0000000 0.0000000) to (17.686748 17.686748 17.686748)
  reading atoms ...
  3375 atoms
  reading velocities ...
  3375 velocities

neighbor	0.3 bin
neigh_modify	every 20 delay 0 check no

fix		1 all nve
timestep        0.002
thermo		50

reset_timestep  0
compute         myVACF all vacf

fix             fixVACF all vector 1 c_myVACF[4]
variable        diff_integ equal dt*trap(f_fixVACF)
variable        curVACF equal c_myVACF[4]

variable        step0 equal step
variable        step0 equal $(v_step0)
variable        step0 equal 0
variable        dtime equal (step-0)*dt
thermo_style	custom step time temp ke pe etotal press

run             2500
  update every 20 steps, delay 0 steps, check no
Step Time Temp KinEng PotEng TotEng Press
0            0    1.5015822    2.2517059   -3.8568887   -1.6051828    1.0610076
Averages over the last 26 of 51 rows, steps 1250 to 2500:
Temp KinEng PotEng TotEng Press
1.50061 2.25025 -3.85619 -1.60594 1.10174
Loop time of 8.51758 on 1 procs for 2500 steps with 3375 atoms

variable        diff_accum equal 0.0563408420642012+0.747265258069754/(3*25)
unfix           fixVACF
write_data      liquid.T1.5.rho0.61.data
System init for write_data ...
print           "" append log.vacf.T1.5.rho0.61.txt screen no

next            loop_counter
jump            SELF loop
clear

pair_style	lj/smooth 2.5 3.0

read_data       liquid.T1.5.rho0.61.data
Reading data file ...
  orthogonal box = (0.0000000 0.0000000 0.0000000) to (17.686748 17.686748 17.686748)
  reading atoms ...
  3375 atoms
  reading velocities ...
  3375 velocities

neighbor	0.3 bin
neigh_modify	every 20 delay 0 check no

fix		1 all nve
timestep        0.002
thermo		50

reset_timestep  0
compute         myVACF all vacf

fix             fixVACF all vector 1 c_myVACF[4]
variable        diff_integ equal dt*trap(f_fixVACF)
variable        curVACF equal c_myVACF[4]

variable        step0 equal step
variable        step0 equal $(v_step0)
variable        step0 equal 0
variable        dtime equal (step-0)*dt
thermo_style	custom step time temp ke pe etotal press

run             2500
  update every 20 steps, delay 0 steps, check no
Step Time Temp KinEng PotEng TotEng Press
0            0    1.5197546    2.2789564   -3.8844555   -1.6054991   0.97530802
Averages over the last 26 of 51 rows, steps 1250 to 2500:
Temp KinEng PotEng TotEng Press
1.49726 2.24523 -3.85087 -1.60564 1.11655
Loop time of 8.54958 on 1 procs for 2500 steps with 3375 atoms

variable        diff_accum equal 0.0663043788384646+0.669577792430071/(3*25)
unfix           fixVACF
write_data      liquid.T1.5.rho0.61.data
System init for write_data ...
print           "" append log.vacf.T1.5.rho0.61.txt screen no

next            loop_counter
jump            SELF loop
clear

pair_style	lj/smooth 2.5 3.0

read_data       liquid.T1.5.rho0.61.data
Reading data file ...
  orthogonal box = (0.0000000 0.0000000 0.0000000) to (17.686748 17.686748 17.686748)
  reading atoms ...
  3375 atoms
  reading velocities ...
  3375 velocities

neighbor	0.3 bin
neigh_modify	every 20 delay 0 check no

fix		1 all nve
timestep        0.002
thermo		50

reset_timestep  0
compute         myVACF all vacf

fix             fixVACF all vector 1 c_myVACF[4]
variable        diff_integ equal dt*trap(f_fixVACF)
variable        curVACF equal c_myVACF[4]

variable        step0 equal step
variable        step0 equal $(v_step0)
variable        step0 equal 0
variable        dtime equal (step-0)*dt
thermo_style	custom step time temp ke pe etotal press

run             2500
  update every 20 steps, delay 0 steps, check no
Step Time Temp KinEng PotEng TotEng Press
0            0    1.4831995      2.22414   -3.8300777   -1.6059377    1.1884083
Averages over the last 26 of 51 rows, steps 1250 to 2500:
Temp KinEng PotEng TotEng Press
1.50035 2.24986 -3.85562 -1.60576 1.09135
Loop time of 8.47789 on 1 procs for 2500 steps with 3375 atoms

variable        diff_accum equal 0.0752320827375322+0.597053206171042/(3*25)
unfix           fixVACF
write_data      liquid.T1.5.rho0.61.data
System init for write_data ...
print           "" append log.vacf.T1.5.rho0.61.txt screen no

next            loop_counter
jump            SELF loop
clear

pair_style	lj/smooth 2.5 3.0

read_data       liquid.T1.5.rho0.61.data
Reading data file ...
  orthogonal box = (0.0000000 0.0000000 0.0000000) to (17.686748 17.686748 17.686748)
  reading atoms ...
  3375 atoms
  reading velocities ...
  3375 velocities

neighbor	0.3 bin
neigh_modify	every 20 delay 0 check no

fix		1 all nve
timestep        0.002
thermo		50

reset_timestep  0
compute         myVACF all vacf

fix             fixVACF all vector 1 c_myVACF[4]
variable        diff_integ equal dt*trap(f_fixVACF)
variable        curVACF equal c_myVACF[4]

variable        step0 equal step
variable        step0 equal $(v_step0)
variable        step0 equal 0
variable        dtime equal (step-0)*dt
thermo_style	custom step time temp ke pe etotal press

run             2500
  update every 20 steps, delay 0 steps, check no
Step Time Temp KinEng PotEng TotEng Press
0            0    1.5168333    2.2745758   -3.8802885   -1.6057127    1.0730299
Averages over the last 26 of 51 rows, steps 1250 to 2500:
Temp KinEng PotEng TotEng Press
1.49673 2.24443 -3.85024 -1.60581 1.10335
Loop time of 8.57725 on 1 procs for 2500 steps with 3375 atoms

variable        diff_accum equal 0.0831927921531461+0.737429976704076/(3*25)
unfix           fixVACF
write_data      liquid.T1.5.rho0.61.data
System init for write_data ...
print           "" append log.vacf.T1.5.rho0.61.txt screen no

next            loop_counter
jump            SELF loop
clear

pair_style	lj/smooth 2.5 3.0

read_data       liquid.T1.5.rho0.61.data
Reading data file ...
  orthogonal box = (0.0000000 0.0000000 0.0000000) to (17.686748 17.686748 17.686748)
  reading atoms ...
  3375 atoms
  reading velocities ...
  3375 velocities

neighbor	0.3 bin
neigh_modify	every 20 delay 0 check no

fix		1 all nve
timestep        0.002
thermo		50

reset_timestep  0
compute         myVACF all vacf

fix             fixVACF all vector 1 c_myVACF[4]
variable        diff_integ equal dt*trap(f_fixVACF)
variable        curVACF equal c_myVACF[4]

variable        step0 equal step
variable        step0 equal $(v_step0)
variable        step0 equal 0
variable        dtime equal (step-0)*dt
thermo_style	custom step time temp ke pe etotal press

run             2500
  update every 20 steps, delay 0 steps, check no
Step Time Temp KinEng PotEng TotEng Press
0            0     1.482024    2.2223773   -3.8282046   -1.6058273    1.1708584
Averages over the last 26 of 51 rows, steps 1250 to 2500:
Temp KinEng PotEng TotEng Press
1.49787 2.24614 -3.85193 -1.60579 1.10621
Loop time of 8.49197 on 1 procs for 2500 steps with 3375 atoms

variable        diff_accum equal 0.0930251918425338+0.739192050146498/(3*25)
unfix           fixVACF
write_data      liquid.T1.5.rho0.61.data
System init for write_data ...
print           "" append log.vacf.T1.5.rho0.61.txt screen no

next            loop_counter
jump            SELF loop
clear

pair_style	lj/smooth 2.5 3.0

read_data       liquid.T1.5.rho0.61.data
Reading data file ...
  orthogonal box = (0.0000000 0.0000000 0.0000000) to (17.686748 17.686748 17.686748)
  reading atoms ...
  3375 atoms
  reading velocities ...
  3375 velocities

neighbor	0.3 bin
neigh_modify	every 20 delay 0 check no

fix		1 all nve
timestep        0.002
thermo		50

reset_timestep  0
compute         myVACF all vacf

fix             fixVACF all vector 1 c_myVACF[4]
variable        diff_integ equal dt*trap(f_fixVACF)
variable        curVACF equal c_myVACF[4]

variable        step0 equal step
variable        step0 equal $(v_step0)
variable        step0 equal 0
variable        dtime equal (step-0)*dt
thermo_style	custom step time temp ke pe etotal press

run             2500
  update every 20 steps, delay 0 steps, check no
Step Time Temp KinEng PotEng TotEng Press
0            0     1.492491    2.2380732   -3.8434645   -1.6053912    1.1351191
Averages over the last 26 of 51 rows, steps 1250 to 2500:
Temp KinEng PotEng TotEng Press
1.49687 2.24465 -3.85032 -1.60568 1.10431
Loop time of 8.5029 on 1 procs for 2500 steps with 3375 atoms

variable        diff_accum equal 0.102881085844487+0.659230331293677/(3*25)
unfix           fixVACF
write_data      liquid.T1.5.rho0.61.data
System init for write_data ...
print           "" append log.vacf.T1.5.rho0.61.txt screen no

next            loop_counter
jump            SELF loop
clear

pair_style	lj/smooth 2.5 3.0

read_data       liquid.T1.5.rho0.61.data
Reading data file ...
  orthogonal box = (0.0000000 0.0000000 0.0000000) to (17.686748 17.686748 17.686748)
  reading atoms ...
  3375 atoms
  reading velocities ...
  3375 velocities

neighbor	0.3 bin
neigh_modify	every 20 delay 0 check no

fix		1 all nve
timestep        0.002
thermo		50

reset_timestep  0
compute         myVACF all vacf

fix             fixVACF all vector 1 c_myVACF[4]
variable        diff_integ equal dt*trap(f_fixVACF)
variable        curVACF equal c_myVACF[4]

variable        step0 equal step
variable        step0 equal $(v_step0)
variable        step0 equal 0
variable        dtime equal (step-0)*dt
thermo_style	custom step time temp ke pe etotal press

run             2500
  update every 20 steps, delay 0 steps, check no
Step Time Temp KinEng PotEng TotEng Press
0            0    1.4969034    2.2446898   -3.8505462   -1.6058564    1.1196933
Averages over the last 26 of 51 rows, steps 1250 to 2500:
Temp KinEng PotEng TotEng Press
1.5024 2.25293 -3.85874 -1.60582 1.09114
Loop time of 8.6183 on 1 procs for 2500 steps with 3375 atoms

variable        diff_accum equal 0.111670823595069+0.723571833696911/(3*25)
unfix           fixVACF
write_data      liquid.T1.5.rho0.61.data
System init for write_data ...
print           "" append log.vacf.T1.5.rho0.61.txt screen no

next            loop_counter
jump            SELF loop
clear

pair_style	lj/smooth 2.5 3.0

read_data       liquid.T1.5.rho0.61.data
Reading data file ...
  orthogonal box = (0.0000000 0.0000000 0.0000000) to (17.686748 17.686748 17.686748)
  reading atoms ...
  3375 atoms
  reading velocities ...
  3375 velocities

neighbor	0.3 bin
neigh_modify	every 20 delay 0 check no

fix		1 all nve
timestep        0.002
thermo		50

reset_timestep  0
compute         myVACF all vacf

fix             fixVACF all vector 1 c_myVACF[4]
variable        diff_integ equal dt*trap(f_fixVACF)
variable        curVACF equal c_myVACF[4]

variable        step0 equal step
variable        step0 equal $(v_step0)
variable        step0 equal 0
variable        dtime equal (step-0)*dt
thermo_style	custom step time temp ke pe etotal press

run             2500
  update every 20 steps, delay 0 steps, check no
Step Time Temp KinEng PotEng TotEng Press
0            0    1.5104068    2.2649389   -3.8705845   -1.6056457    1.0789406
Averages over the last 26 of 51 rows, steps 1250 to 2500:
Temp KinEng PotEng TotEng Press
1.49604 2.24339 -3.84912 -1.60573 1.11806
Loop time of 8.53064 on 1 procs for 2500 steps with 3375 atoms

variable        diff_accum equal 0.121318448044361+0.645237437029134/(3*25)
unfix           fixVACF
write_data      liquid.T1.5.rho0.61.data
System init for write_data ...
print           "" append log.vacf.T1.5.rho0.61.txt screen no

next            loop_counter
jump            SELF loop
clear

pair_style	lj/smooth 2.5 3.0

read_data       liquid.T1.5.rho0.61.data
Reading data file ...
  orthogonal box = (0.0000000 0.0000000 0.0000000) to (17.686748 17.686748 17.686748)
  reading atoms ...
  3375 atoms
  reading velocities ...
  3375 velocities

neighbor	0.3 bin
neigh_modify	every 20 delay 0 check no

fix		1 all nve
timestep        0.002
thermo		50

reset_timestep  0
compute         myVACF all vacf

fix             fixVACF all vector 1 c_myVACF[4]
variable        diff_integ equal dt*trap(f_fixVACF)
variable        curVACF equal c_myVACF[4]

variable        step0 equal step
variable        step0 equal $(v_step0)
variable        step0 equal 0
variable        dtime equal (step-0)*dt
thermo_style	custom step time temp ke pe etotal press

run             2500
  update every 20 steps, delay 0 steps, check no
Step Time Temp KinEng PotEng TotEng Press
0            0    1.4930266    2.2388764   -3.8450279   -1.6061514    1.1610097
Averages over the last 26 of 51 rows, steps 1250 to 2500:
Temp KinEng PotEng TotEng Press
1.49643 2.24397 -3.84998 -1.60601 1.10984
Loop time of 8.5019 on 1 procs for 2500 steps with 3375 atoms

variable        diff_accum equal 0.129921613871416+0.669319624447286/(3*25)
unfix           fixVACF
write_data      liquid.T1.5.rho0.61.data
System init for write_data ...
print           "" append log.vacf.T1.5.rho0.61.txt screen no

next            loop_counter
jump            SELF loop
clear

pair_style	lj/smooth 2.5 3.0

read_data       liquid.T1.5.rho0.61.data
Reading data file ...
  orthogonal box = (0.0000000 0.0000000 0.0000000) to (17.686748 17.686748 17.686748)
  reading atoms ...
  3375 atoms
  reading velocities ...
  3375 velocities

neighbor	0.3 bin
neigh_modify	every 20 delay 0 check no

fix		1 all nve
timestep        0.002
thermo		50

reset_timestep  0
compute         myVACF all vacf

fix             fixVACF all vector 1 c_myVACF[4]
variable        diff_integ equal dt*trap(f_fixVACF)
variable        curVACF equal c_myVACF[4]

variable        step0 equal step
variable        step0 equal $(v_step0)
variable        step0 equal 0
variable        dtime equal (step-0)*dt
thermo_style	custom step time temp ke pe etotal press

run             2500
  update every 20 steps, delay 0 steps, check no
Step Time Temp KinEng PotEng TotEng Press
0            0    1.4994646    2.2485305   -3.8545821   -1.6060517    1.0849016
Averages over the last 26 of 51 rows, steps 1250 to 2500:
Temp KinEng PotEng TotEng Press
1.49976 2.24897 -3.85483 -1.60586 1.11553
Loop time of 8.5171 on 1 procs for 2500 steps with 3375 atoms

variable        diff_accum equal 0.138845875530713+0.678309374527427/(3*25)
unfix           fixVACF
write_data      liquid.T1.5.rho0.61.data
System init for write_data ...
print           "" append log.vacf.T1.5.rho0.61.txt screen no

next            loop_counter
jump            SELF loop
clear

pair_style	lj/smooth 2.5 3.0

read_data       liquid.T1.5.rho0.61.data
Reading data file ...
  orthogonal box = (0.0000000 0.0000000 0.0000000) to (17.686748 17.686748 17.686748)
  reading atoms ...
  3375 atoms
  reading velocities ...
  3375 velocities

neighbor	0.3 bin
neigh_modify	every 20 delay 0 check no

fix		1 all nve
timestep        0.002
thermo		50

reset_timestep  0
compute         myVACF all vacf

fix             fixVACF all vector 1 c_myVACF[4]
variable        diff_integ equal dt*trap(f_fixVACF)
variable        curVACF equal c_myVACF[4]

variable        step0 equal step
variable        step0 equal $(v_step0)
variable        step0 equal 0
variable        dtime equal (step-0)*dt
thermo_style	custom step time temp ke pe etotal press

run             2500
  update every 20 steps, delay 0 steps, check no
Step Time Temp KinEng PotEng TotEng Press
0            0    1.4818021    2.2220445    -3.827902   -1.6058574    1.1816174
Averages over the last 26 of 51 rows, steps 1250 to 2500:
Temp KinEng PotEng TotEng Press
1.50137 2.2514 -3.85713 -1.60573 1.09584
Loop time of 8.49775 on 1 procs for 2500 steps with 3375 atoms

variable        diff_accum equal 0.147890000524412+0.629079674288953/(3*25)
unfix           fixVACF
write_data      liquid.T1.5.rho0.61.data
System init for write_data ...
print           "" append log.vacf.T1.5.rho0.61.txt screen no

next            loop_counter
jump            SELF loop
clear

pair_style	lj/smooth 2.5 3.0

read_data       liquid.T1.5.rho0.61.data
Reading data file ...
  orthogonal box = (0.0000000 0.0000000 0.0000000) to (17.686748 17.686748 17.686748)
  reading atoms ...
  3375 atoms
  reading velocities ...
  3375 velocities

neighbor	0.3 bin
neigh_modify	every 20 delay 0 check no

fix		1 all nve
timestep        0.002
thermo		50

reset_timestep  0
compute         myVACF all vacf

fix             fixVACF all vector 1 c_myVACF[4]
variable        diff_integ equal dt*trap(f_fixVACF)
variable        curVACF equal c_myVACF[4]

variable        step0 equal step
variable        step0 equal $(v_step0)
variable        step0 equal 0
variable        dtime equal (step-0)*dt
thermo_style	custom step time temp ke pe etotal press

run             2500
  update every 20 steps, delay 0 steps, check no
Step Time Temp KinEng PotEng TotEng Press
0            0    1.4990002    2.2478341    -3.853757   -1.6059229    1.1440244
Averages over the last 26 of 51 rows, steps 1250 to 2500:
Temp KinEng PotEng TotEng Press
1.4954 2.24243 -3.84819 -1.60576 1.09925
Loop time of 8.60219 on 1 procs for 2500 steps with 3375 atoms

variable        diff_accum equal 0.156277729514931+0.638205847913546/(3*25)
unfix           fixVACF
write_data      liquid.T1.5.rho0.61.data
System init for write_data ...
print           "" append log.vacf.T1.5.rho0.61.txt screen no

next            loop_counter
jump            SELF loop
clear

pair_style	lj/smooth 2.5 3.0

read_data       liquid.T1.5.rho0.61.data
Reading data file ...
  orthogonal box = (0.0000000 0.0000000 0.0000000) to (17.686748 17.686748 17.686748)
  reading atoms ...
  3375 atoms
  reading velocities ...
  3375 velocities

neighbor	0.3 bin
neigh_modify	every 20 delay 0 check no

fix		1 all nve
timestep        0.002
thermo		50

reset_timestep  0
compute         myVACF all vacf

fix             fixVACF all vector 1 c_myVACF[4]
variable        diff_integ equal dt*trap(f_fixVACF)
variable        curVACF equal c_myVACF[4]

variable        step0 equal step
variable        step0 equal $(v_step0)
variable        step0 equal 0
variable        dtime equal (step-0)*dt
thermo_style	custom step time temp ke pe etotal press

run             2500
  update every 20 steps, delay 0 steps, check no
Step Time Temp KinEng PotEng TotEng Press
0            0    1.4973647    2.2453816   -3.8508193   -1.6054377    1.0761191
Averages over the last 26 of 51 rows, steps 1250 to 2500:
Temp KinEng PotEng TotEng Press
1.49753 2.24563 -3.85155 -1.60592 1.11671
Loop time of 8.70893 on 1 procs for 2500 steps with 3375 atoms

variable        diff_accum equal 0.164787140820445+0.669475747927868/(3*25)
unfix           fixVACF
write_data      liquid.T1.5.rho0.61.data
System init for write_data ...
print           "" append log.vacf.T1.5.rho0.61.txt screen no

next            loop_counter
jump            SELF loop
clear

pair_style	lj/smooth 2.5 3.0

read_data       liquid.T1.5.rho0.61.data
Reading data file ...
  orthogonal box = (0.0000000 0.0000000 0.0000000) to (17.686748 17.686748 17.686748)
  reading atoms ...
  3375 atoms
  reading velocities ...
  3375 velocities

neighbor	0.3 bin
neigh_modify	every 20 delay 0 check no

fix		1 all nve
timestep        0.002
thermo		50

reset_timestep  0
compute         myVACF all vacf

fix             fixVACF all vector 1 c_myVACF[4]
variable        diff_integ equal dt*trap(f_fixVACF)
variable        curVACF equal c_myVACF[4]

variable        step0 equal step
variable        step0 equal $(v_step0)
variable        step0 equal 0
variable        dtime equal (step-0)*dt
thermo_style	custom step time temp ke pe etotal press

run             2500
  update every 20 steps, delay 0 steps, check no
Step Time Temp KinEng PotEng TotEng Press
0            0    1.4953719    2.2423932   -3.8481482    -1.605755    1.0749738
Averages over the last 26 of 51 rows, steps 1250 to 2500:
Temp KinEng PotEng TotEng Press
1.50207 2.25243 -3.85811 -1.60568 1.10989
Loop time of 8.48334 on 1 procs for 2500 steps with 3375 atoms

variable        diff_accum equal 0.17371348412615+0.705241166749744/(3*25)
unfix           fixVACF
write_data      liquid.T1.5.rho0.61.data
System init for write_data ...
print           "" append log.vacf.T1.5.rho0.61.txt screen no

next            loop_counter
jump            SELF loop
clear

pair_style	lj/smooth 2.5 3.0

read_data       liquid.T1.5.rho0.61.data
Reading data file ...
  orthogonal box = (0.0000000 0.0000000 0.0000000) to (17.686748 17.686748 17.686748)
  reading atoms ...
  3375 atoms
  reading velocities ...
  3375 velocities

neighbor	0.3 bin
neigh_modify	every 20 delay 0 check no

fix		1 all nve
timestep        0.002
thermo		50

reset_timestep  0
compute         myVACF all vacf

fix             fixVACF all vector 1 c_myVACF[4]
variable        diff_integ equal dt*trap(f_fixVACF)
variable        curVACF equal c_myVACF[4]

variable        step0 equal step
variable        step0 equal $(v_step0)
variable        step0 equal 0
variable        dtime equal (step-0)*dt
thermo_style	custom step time temp ke pe etotal press

run             2500
  update every 20 steps, delay 0 steps, check no
Step Time Temp KinEng PotEng TotEng Press
0            0    1.4871728    2.2300982   -3.8357032    -1.605605    1.1884342
Averages over the last 26 of 51 rows, steps 1250 to 2500:
Temp KinEng PotEng TotEng Press
1.49704 2.2449 -3.85078 -1.60588 1.10481
Loop time of 8.49806 on 1 procs for 2500 steps with 3375 atoms

variable        diff_accum equal 0.183116699682813+0.677073329952904/(3*25)
unfix           fixVACF
write_data      liquid.T1.5.rho0.61.data
System init for write_data ...
print           "" append log.vacf.T1.5.rho0.61.txt screen no

next            loop_counter
jump            SELF loop
clear

pair_style	lj/smooth 2.5 3.0

read_data       liquid.T1.5.rho0.61.data
Reading data file ...
  orthogonal box = (0.0000000 0.0000000 0.0000000) to (17.686748 17.686748 17.686748)
  reading atoms ...
  3375 atoms
  reading velocities ...
  3375 velocities

neighbor	0.3 bin
neigh_modify	every 20 delay 0 check no

fix		1 all nve
timestep        0.002
thermo		50

reset_timestep  0
compute         myVACF all vacf

fix             fixVACF all vector 1 c_myVACF[4]
variable        diff_integ equal dt*trap(f_fixVACF)
variable        curVACF equal c_myVACF[4]

variable        step0 equal step
variable        step0 equal $(v_step0)
variable        step0 equal 0
variable        dtime equal (step-0)*dt
thermo_style	custom step time temp ke pe etotal press

run             2500
  update every 20 steps, delay 0 steps, check no
Step Time Temp KinEng PotEng TotEng Press
0            0    1.4957397    2.2429448    -3.848862   -1.6059172    1.1628482
Averages over the last 26 of 51 rows, steps 1250 to 2500:
Temp KinEng PotEng TotEng Press
1.49863 2.24728 -3.85304 -1.60576 1.08682
Loop time of 8.43882 on 1 procs for 2500 steps with 3375 atoms

variable        diff_accum equal 0.192144344082185+0.636651535183491/(3*25)
unfix           fixVACF
write_data      liquid.T1.5.rho0.61.data
System init for write_data ...
print           "" append log.vacf.T1.5.rho0.61.txt screen no

next            loop_counter
jump            SELF loop
clear

pair_style	lj/smooth 2.5 3.0

read_data       liquid.T1.5.rho0.61.data
Reading data file ...
  orthogonal box = (0.0000000 0.0000000 0.0000000) to (17.686748 17.686748 17.686748)
  reading atoms ...
  3375 atoms
  reading velocities ...
  3375 velocities

neighbor	0.3 bin
neigh_modify	every 20 delay 0 check no

fix		1 all nve
timestep        0.002
thermo		50

reset_timestep  0
compute         myVACF all vacf

fix             fixVACF all vector 1 c_myVACF[4]
variable        diff_integ equal dt*trap(f_fixVACF)
variable        curVACF equal c_myVACF[4]

variable        step0 equal step
variable        step0 equal $(v_step0)
variable        step0 equal 0
variable        dtime equal (step-0)*dt
thermo_style	custom step time temp ke pe etotal press

run             2500
  update every 20 steps, delay 0 steps, check no
Step Time Temp KinEng PotEng TotEng Press
0            0    1.5016494    2.2518068   -3.8576145   -1.6058077    1.0631136
Averages over the last 26 of 51 rows, steps 1250 to 2500:
Temp KinEng PotEng TotEng Press
1.49646 2.24402 -3.84971 -1.60569 1.09814
Loop time of 8.503 on 1 procs for 2500 steps with 3375 atoms

variable        diff_accum equal 0.200633031217965+0.621752227222899/(3*25)
unfix           fixVACF
write_data      liquid.T1.5.rho0.61.data
System init for write_data ...
print           "" append log.vacf.T1.5.rho0.61.txt screen no

next            loop_counter
jump            SELF loop
clear

pair_style	lj/smooth 2.5 3.0

read_data       liquid.T1.5.rho0.61.data
Reading data file ...
  orthogonal box = (0.0000000 0.0000000 0.0000000) to (17.686748 17.686748 17.686748)
  reading atoms ...
  3375 atoms
  reading velocities ...
  3375 velocities

neighbor	0.3 bin
neigh_modify	every 20 delay 0 check no

fix		1 all nve
timestep        0.002
thermo		50

reset_timestep  0
compute         myVACF all vacf

fix             fixVACF all vector 1 c_myVACF[4]
variable        diff_integ equal dt*trap(f_fixVACF)
variable        curVACF equal c_myVACF[4]

variable        step0 equal step
variable        step0 equal $(v_step0)
variable        step0 equal 0
variable        dtime equal (step-0)*dt
thermo_style	custom step time temp ke pe etotal press

run             2500
  update every 20 steps, delay 0 steps, check no
Step Time Temp KinEng PotEng TotEng Press
0            0    1.5049957    2.2568247   -3.8626803   -1.6058556     1.076254
Averages over the last 26 of 51 rows, steps 1250 to 2500:
Temp KinEng PotEng TotEng Press
1.49782 2.24606 -3.85176 -1.6057 1.08292
Loop time of 8.49853 on 1 procs for 2500 steps with 3375 atoms

variable        diff_accum equal 0.20892306091427+0.707198936818527/(3*25)
unfix           fixVACF
write_data      liquid.T1.5.rho0.61.data
System init for write_data ...
print           "" append log.vacf.T1.5.rho0.61.txt screen no

next            loop_counter
jump            SELF loop
clear

pair_style	lj/smooth 2.5 3.0

read_data       liquid.T1.5.rho0.61.data
Reading data file ...
  orthogonal box = (0.0000000 0.0000000 0.0000000) to (17.686748 17.686748 17.686748)
  reading atoms ...
  3375 atoms
  reading velocities ...
  3375 velocities

neighbor	0.3 bin
neigh_modify	every 20 delay 0 check no

fix		1 all nve
timestep        0.002
thermo		50

reset_timestep  0
compute         myVACF all vacf

fix             fixVACF all vector 1 c_myVACF[4]
variable        diff_integ equal dt*trap(f_fixVACF)
variable        curVACF equal c_myVACF[4]

variable        step0 equal step
variable        step0 equal $(v_step0)
variable        step0 equal 0
variable        dtime equal (step-0)*dt
thermo_style	custom step time temp ke pe etotal press

run             2500
  update every 20 steps, delay 0 steps, check no
Step Time Temp KinEng PotEng TotEng Press
0            0    1.4818863    2.2221708   -3.8281778    -1.606007    1.1776336
Averages over the last 26 of 51 rows, steps 1250 to 2500:
Temp KinEng PotEng TotEng Press
1.49785 2.24611 -3.85174 -1.60563 1.08617
Loop time of 8.47668 on 1 procs for 2500 steps with 3375 atoms

variable        diff_accum equal 0.21835238007185+0.607080035421609/(3*25)
unfix           fixVACF
write_data      liquid.T1.5.rho0.61.data
System init for write_data ...
print           "" append log.vacf.T1.5.rho0.61.txt screen no

next            loop_counter
jump            SELF loop

Diffusivity estimate (GK): 0.226446780544138
