units		lj
atom_style	atomic

pair_style	lj/smooth 2.5 3.0

read_data       liquid.T1.4.rho0.64.data
Reading data file ...
  orthogonal box = (0.0000000 0.0000000 0.0000000) to (17.405958 17.405958 17.405958)
  reading atoms ...
  3375 atoms
  reading velocities ...
  3375 velocities

neighbor	0.3 bin
neigh_modify	every 20 delay 0 check no

fix		1 all nve

timestep	0.002

reset_timestep  0

compute		msd all msd
variable        msd_xyz equal c_msd[4]
variable        step0 equal step
variable        step0 equal 0
variable        dtime equal (step-0)*dt
variable        diffus equal v_msd_xyz/(6*(v_dtime+1e-12))
thermo_style	custom step time temp ke pe etotal press c_msd[4]
thermo          50

run		5000
  update every 20 steps, delay 0 steps, check no
Step Time Temp KinEng PotEng TotEng Press c_msd[4]
0            0    1.3721613    2.0576321   -4.0700436   -2.0124114    1.0959002            0
Averages over the last 51 of 101 rows, steps 2500 to 5000:
Temp KinEng PotEng TotEng Press c_msd[4]
1.38599 2.07836 -4.09097 -2.01261 1.04458 8.37299
Loop time of 17.638 on 1 procs for 5000 steps with 3375 atoms

Diffusivity estimate (MSD): 0.188535080514853

write_data      liquid.T1.4.rho0.64.data
System init for write_data ...
