units		lj
atom_style	atomic

timestep	0.002

lattice		sc 0.64 origin 0.5 0.5 0.5
Lattice spacing in x,y,z = 1.1603972 1.1603972 1.1603972
region		box block 0 15 0 15 0 15
create_box	1 box
Created orthogonal box = (0.0000000 0.0000000 0.0000000) to (17.405958 17.405958 17.405958)
create_atoms	1 box
Created 3375 atoms
mass		1 1.0

velocity	all create 1.4 87287 mom yes

pair_style	lj/smooth 2.5 3.0
pair_coeff	1 1 1.0 1.0

neighbor	0.3 bin
neigh_modify	every 20 delay 0 check no

fix		1 all nve

thermo		50
run		1000
  update every 20 steps, delay 0 steps, check no
Step Temp E_pair E_mol TotEng Press
0          1.4   -4.6500429            0   -2.5506651   -2.2817108
Averages over the last 11 of 21 rows, steps 500 to 1000:
Temp E_pair E_mol TotEng Press
1.1409 -4.22307 0 -2.51222 0.457216
Loop time of 3.47713 on 1 procs for 1000 steps with 3375 atoms

fix		2 all langevin 1.4 1.4 0.5 7162534 zero yes

run		2000
Step Temp E_pair E_mol TotEng Press
1000    1.1507529   -4.2376528            0   -2.5120349    0.4353607
Averages over the last 21 of 41 rows, steps 2000 to 3000:
Temp E_pair E_mol TotEng Press
1.39335 -4.07883 0 -1.98943 1.08739
Loop time of 7.34017 on 1 procs for 2000 steps with 3375 atoms

write_data      liquid.T1.4.rho0.64.data
System init for write_data ...
