shell           rm log.sacf.T1.4.rho0.67.txt
units		lj
atom_style	atomic

pair_style	lj/smooth 2.5 3.0

read_data       liquid.T1.4.rho0.67.data
Reading data file ...
  orthogonal box = (0.0000000 0.0000000 0.0000000) to (17.142191 17.142191 17.142191)
  reading atoms ...
  3375 atoms
  reading velocities ...
  3375 velocities

neighbor	0.3 bin
neigh_modify	every 20 delay 0 check no

fix             1 all nve
timestep        0.002

variable        pxy equal pxy
variable        pxz equal pxz
variable        pyz equal pyz

fix             SACF all ave/correlate 5 1000 5000 v_pxy v_pxz v_pyz type auto file log.sacf.gk.T1.4.rho0.67.txt ave running

thermo_style	custom step time temp ke pe etotal press
thermo          200

variable        gkscale equal vol/1.4*5*dt

variable        vxy equal trap(f_SACF[3])*35.9808102345416
variable        vxz equal trap(f_SACF[4])*35.9808102345416
variable        vyz equal trap(f_SACF[5])*35.9808102345416

variable        step0 equal $(step)
variable        step0 equal 0
variable        dtime equal (step-0)*dt
fix             print_shear all print 1 "$(v_dtime) $(pxy) $(pxz) $(pyz)" file log.shear.T1.4.rho0.67.txt screen no title "Time Pxy Pxz Pyz"
run		125000
  update every 20 steps, delay 0 steps, check no
Step Time Temp KinEng PotEng TotEng Press
0            0    1.3975536    2.0957093   -4.2687868   -2.1730774    1.3410012
Averages over the last 313 of 626 rows, steps 62600 to 125000:
Temp KinEng PotEng TotEng Press
1.39588 2.0932 -4.26613 -2.17294 1.33481
Loop time of 466.8 on 1 procs for 125000 steps with 3375 atoms

write_data      liquid.T1.4.rho0.67.data
System init for write_data ...

variable        eta equal (0.773630385978709+0.938054793287619+1.09955469428806)/3
Viscosity estimate (GK): 0.937079957851463
