shell           rm log.vacf.T1.5.rho0.67.txt
units		lj
atom_style	atomic

variable        loop_counter loop 25
variable        diff_accum equal 0

label           loop
clear

pair_style	lj/smooth 2.5 3.0

read_data       liquid.T1.5.rho0.67.data
Reading data file ...
  orthogonal box = (0.0000000 0.0000000 0.0000000) to (17.142191 17.142191 17.142191)
  reading atoms ...
  3375 atoms
  reading velocities ...
  3375 velocities

neighbor	0.3 bin
neigh_modify	every 20 delay 0 check no

fix		1 all nve
timestep        0.002
thermo		50

reset_timestep  0
compute         myVACF all vacf

fix             fixVACF all vector 1 c_myVACF[4]
variable        diff_integ equal dt*trap(f_fixVACF)
variable        curVACF equal c_myVACF[4]

variable        step0 equal step
variable        step0 equal $(v_step0)
variable        step0 equal 0
variable        dtime equal (step-0)*dt
thermo_style	custom step time temp ke pe etotal press

run             2500
  update every 20 steps, delay 0 steps, check no
Step Time Temp KinEng PotEng TotEng Press
0            0     1.494542    2.2411487   -4.2368351   -1.9956864    1.5542119
Averages over the last 26 of 51 rows, steps 1250 to 2500:
Temp KinEng PotEng TotEng Press
1.48039 2.21993 -4.21572 -1.99578 1.58758
Loop time of 9.24099 on 1 procs for 2500 steps with 3375 atoms

variable        diff_accum equal 0+0.625006766472613/(3*25)
unfix           fixVACF
write_data      liquid.T1.5.rho0.67.data
System init for write_data ...
print           "" append log.vacf.T1.5.rho0.67.txt screen no

next            loop_counter
jump            SELF loop
clear

pair_style	lj/smooth 2.5 3.0

read_data       liquid.T1.5.rho0.67.data
Reading data file ...
  orthogonal box = (0.0000000 0.0000000 0.0000000) to (17.142191 17.142191 17.142191)
  reading atoms ...
  3375 atoms
  reading velocities ...
  3375 velocities

neighbor	0.3 bin
neigh_modify	every 20 delay 0 check no

fix		1 all nve
timestep        0.002
thermo		50

reset_timestep  0
compute         myVACF all vacf

fix             fixVACF all vector 1 c_myVACF[4]
variable        diff_integ equal dt*trap(f_fixVACF)
variable        curVACF equal c_myVACF[4]

variable        step0 equal step
variable        step0 equal $(v_step0)
variable        step0 equal 0
variable        dtime equal (step-0)*dt
thermo_style	custom step time temp ke pe etotal press

run             2500
  update every 20 steps, delay 0 steps, check no
Step Time Temp KinEng PotEng TotEng Press
0            0    1.4787903    2.2175282   -4.2127181     -1.99519     1.582955
Averages over the last 26 of 51 rows, steps 1250 to 2500:
Temp KinEng PotEng TotEng Press
1.48096 2.22078 -4.21661 -1.99583 1.57266
Loop time of 9.43048 on 1 procs for 2500 steps with 3375 atoms

variable        diff_accum equal 0.00833342355296817+0.5385420187986/(3*25)
unfix           fixVACF
write_data      liquid.T1.5.rho0.67.data
System init for write_data ...
print           "" append log.vacf.T1.5.rho0.67.txt screen no

next            loop_counter
jump            SELF loop
clear

pair_style	lj/smooth 2.5 3.0

read_data       liquid.T1.5.rho0.67.data
Reading data file ...
  orthogonal box = (0.0000000 0.0000000 0.0000000) to (17.142191 17.142191 17.142191)
  reading atoms ...
  3375 atoms
  reading velocities ...
  3375 velocities

neighbor	0.3 bin
neigh_modify	every 20 delay 0 check no

fix		1 all nve
timestep        0.002
thermo		50

reset_timestep  0
compute         myVACF all vacf

fix             fixVACF all vector 1 c_myVACF[4]
variable        diff_integ equal dt*trap(f_fixVACF)
variable        curVACF equal c_myVACF[4]

variable        step0 equal step
variable        step0 equal $(v_step0)
variable        step0 equal 0
variable        dtime equal (step-0)*dt
thermo_style	custom step time temp ke pe etotal press

run             2500
  update every 20 steps, delay 0 steps, check no
Step Time Temp KinEng PotEng TotEng Press
0            0    1.4725889    2.2082289   -4.2040943   -1.9958654    1.5512253
Averages over the last 26 of 51 rows, steps 1250 to 2500:
Temp KinEng PotEng TotEng Press
1.48299 2.22383 -4.21954 -1.99571 1.55431
Loop time of 9.19258 on 1 procs for 2500 steps with 3375 atoms

variable        diff_accum equal 0.0155139838036162+0.481379853564786/(3*25)
unfix           fixVACF
write_data      liquid.T1.5.rho0.67.data
System init for write_data ...
print           "" append log.vacf.T1.5.rho0.67.txt screen no

next            loop_counter
jump            SELF loop
clear

pair_style	lj/smooth 2.5 3.0

read_data       liquid.T1.5.rho0.67.data
Reading data file ...
  orthogonal box = (0.0000000 0.0000000 0.0000000) to (17.142191 17.142191 17.142191)
  reading atoms ...
  3375 atoms
  reading velocities ...
  3375 velocities

neighbor	0.3 bin
neigh_modify	every 20 delay 0 check no

fix		1 all nve
timestep        0.002
thermo		50

reset_timestep  0
compute         myVACF all vacf

fix             fixVACF all vector 1 c_myVACF[4]
variable        diff_integ equal dt*trap(f_fixVACF)
variable        curVACF equal c_myVACF[4]

variable        step0 equal step
variable        step0 equal $(v_step0)
variable        step0 equal 0
variable        dtime equal (step-0)*dt
thermo_style	custom step time temp ke pe etotal press

run             2500
  update every 20 steps, delay 0 steps, check no
Step Time Temp KinEng PotEng TotEng Press
0            0    1.5060964    2.2584753   -4.2546699   -1.9961947    1.4251701
Averages over the last 26 of 51 rows, steps 1250 to 2500:
Temp KinEng PotEng TotEng Press
1.4812 2.22115 -4.21679 -1.99564 1.57878
Loop time of 9.23799 on 1 procs for 2500 steps with 3375 atoms

variable        diff_accum equal 0.0219323818511467+0.47076998289272/(3*25)
unfix           fixVACF
write_data      liquid.T1.5.rho0.67.data
System init for write_data ...
print           "" append log.vacf.T1.5.rho0.67.txt screen no

next            loop_counter
jump            SELF loop
clear

pair_style	lj/smooth 2.5 3.0

read_data       liquid.T1.5.rho0.67.data
Reading data file ...
  orthogonal box = (0.0000000 0.0000000 0.0000000) to (17.142191 17.142191 17.142191)
  reading atoms ...
  3375 atoms
  reading velocities ...
  3375 velocities

neighbor	0.3 bin
neigh_modify	every 20 delay 0 check no

fix		1 all nve
timestep        0.002
thermo		50

reset_timestep  0
compute         myVACF all vacf

fix             fixVACF all vector 1 c_myVACF[4]
variable        diff_integ equal dt*trap(f_fixVACF)
variable        curVACF equal c_myVACF[4]

variable        step0 equal step
variable        step0 equal $(v_step0)
variable        step0 equal 0
variable        dtime equal (step-0)*dt
thermo_style	custom step time temp ke pe etotal press

run             2500
  update every 20 steps, delay 0 steps, check no
Step Time Temp KinEng PotEng TotEng Press
0            0     1.487017    2.2298646    -4.225267   -1.9954023    1.5612353
Averages over the last 26 of 51 rows, steps 1250 to 2500:
Temp KinEng PotEng TotEng Press
1.48213 2.22253 -4.21825 -1.99571 1.59527
Loop time of 9.18672 on 1 procs for 2500 steps with 3375 atoms

variable        diff_accum equal 0.028209314956383+0.561111291257125/(3*25)
unfix           fixVACF
write_data      liquid.T1.5.rho0.67.data
System init for write_data ...
print           "" append log.vacf.T1.5.rho0.67.txt screen no

next            loop_counter
jump            SELF loop
clear

pair_style	lj/smooth 2.5 3.0

read_data       liquid.T1.5.rho0.67.data
Reading data file ...
  orthogonal box = (0.0000000 0.0000000 0.0000000) to (17.142191 17.142191 17.142191)
  reading atoms ...
  3375 atoms
  reading velocities ...
  3375 velocities

neighbor	0.3 bin
neigh_modify	every 20 delay 0 check no

fix		1 all nve
timestep        0.002
thermo		50

reset_timestep  0
compute         myVACF all vacf

fix             fixVACF all vector 1 c_myVACF[4]
variable        diff_integ equal dt*trap(f_fixVACF)
variable        curVACF equal c_myVACF[4]

variable        step0 equal step
variable        step0 equal $(v_step0)
variable        step0 equal 0
variable        dtime equal (step-0)*dt
thermo_style	custom step time temp ke pe etotal press

run             2500
  update every 20 steps, delay 0 steps, check no
Step Time Temp KinEng PotEng TotEng Press
0            0    1.4690244    2.2028837   -4.1987578   -1.9958742    1.6558198
Averages over the last 26 of 51 rows, steps 1250 to 2500:
Temp KinEng PotEng TotEng Press
1.48379 2.22503 -4.22064 -1.99561 1.55587
Loop time of 9.1882 on 1 procs for 2500 steps with 3375 atoms

variable        diff_accum equal 0.0356907988398113+0.571661996213819/(3*25)
unfix           fixVACF
write_data      liquid.T1.5.rho0.67.data
System init for write_data ...
print           "" append log.vacf.T1.5.rho0.67.txt screen no

next            loop_counter
jump            SELF loop
clear

pair_style	lj/smooth 2.5 3.0

read_data       liquid.T1.5.rho0.67.data
Reading data file ...
  orthogonal box = (0.0000000 0.0000000 0.0000000) to (17.142191 17.142191 17.142191)
  reading atoms ...
  3375 atoms
  reading velocities ...
  3375 velocities

neighbor	0.3 bin
neigh_modify	every 20 delay 0 check no

fix		1 all nve
timestep        0.002
thermo		50

reset_timestep  0
compute         myVACF all vacf

fix             fixVACF all vector 1 c_myVACF[4]
variable        diff_integ equal dt*trap(f_fixVACF)
variable        curVACF equal c_myVACF[4]

variable        step0 equal step
variable        step0 equal $(v_step0)
variable        step0 equal 0
variable        dtime equal (step-0)*dt
thermo_style	custom step time temp ke pe etotal press

run             2500
  update every 20 steps, delay 0 steps, check no
Step Time Temp KinEng PotEng TotEng Press
0            0    1.4807155    2.2204152   -4.2163174   -1.9959022    1.5435926
Averages over the last 26 of 51 rows, steps 1250 to 2500:
Temp KinEng PotEng TotEng Press
1.48146 2.22153 -4.21714 -1.99561 1.55521
Loop time of 9.19821 on 1 procs for 2500 steps with 3375 atoms

variable        diff_accum equal 0.0433129587893289+0.579133490066929/(3*25)
unfix           fixVACF
write_data      liquid.T1.5.rho0.67.data
System init for write_data ...
print           "" append log.vacf.T1.5.rho0.67.txt screen no

next            loop_counter
jump            SELF loop
clear

pair_style	lj/smooth 2.5 3.0

read_data       liquid.T1.5.rho0.67.data
Reading data file ...
  orthogonal box = (0.0000000 0.0000000 0.0000000) to (17.142191 17.142191 17.142191)
  reading atoms ...
  3375 atoms
  reading velocities ...
  3375 velocities

neighbor	0.3 bin
neigh_modify	every 20 delay 0 check no

fix		1 all nve
timestep        0.002
thermo		50

reset_timestep  0
compute         myVACF all vacf

fix             fixVACF all vector 1 c_myVACF[4]
variable        diff_integ equal dt*trap(f_fixVACF)
variable        curVACF equal c_myVACF[4]

variable        step0 equal step
variable        step0 equal $(v_step0)
variable        step0 equal 0
variable        dtime equal (step-0)*dt
thermo_style	custom step time temp ke pe etotal press

run             2500
  update every 20 steps, delay 0 steps, check no
Step Time Temp KinEng PotEng TotEng Press
0            0    1.4765282    2.2141361   -4.2099573   -1.9958212    1.5838909
Averages over the last 26 of 51 rows, steps 1250 to 2500:
Temp KinEng PotEng TotEng Press
1.47939 2.21843 -4.21414 -1.99571 1.59092
Loop time of 9.20502 on 1 procs for 2500 steps with 3375 atoms

variable        diff_accum equal 0.051034738656888+0.577684169447709/(3*25)
unfix           fixVACF
write_data      liquid.T1.5.rho0.67.data
System init for write_data ...
print           "" append log.vacf.T1.5.rho0.67.txt screen no

next            loop_counter
jump            SELF loop
clear

pair_style	lj/smooth 2.5 3.0

read_data       liquid.T1.5.rho0.67.data
Reading data file ...
  orthogonal box = (0.0000000 0.0000000 0.0000000) to (17.142191 17.142191 17.142191)
  reading atoms ...
  3375 atoms
  reading velocities ...
  3375 velocities

neighbor	0.3 bin
neigh_modify	every 20 delay 0 check no

fix		1 all nve
timestep        0.002
thermo		50

reset_timestep  0
compute         myVACF all vacf

fix             fixVACF all vector 1 c_myVACF[4]
variable        diff_integ equal dt*trap(f_fixVACF)
variable        curVACF equal c_myVACF[4]

variable        step0 equal step
variable        step0 equal $(v_step0)
variable        step0 equal 0
variable        dtime equal (step-0)*dt
thermo_style	custom step time temp ke pe etotal press

run             2500
  update every 20 steps, delay 0 steps, check no
Step Time Temp KinEng PotEng TotEng Press
0            0    1.4789496    2.2177672   -4.2135491   -1.9957819    1.6484768
Averages over the last 26 of 51 rows, steps 1250 to 2500:
Temp KinEng PotEng TotEng Press
1.4819 2.22219 -4.21773 -1.99554 1.56364
Loop time of 9.18611 on 1 procs for 2500 steps with 3375 atoms

variable        diff_accum equal 0.0587371942495241+0.593957671208617/(3*25)
unfix           fixVACF
write_data      liquid.T1.5.rho0.67.data
System init for write_data ...
print           "" append log.vacf.T1.5.rho0.67.txt screen no

next            loop_counter
jump            SELF loop
clear

pair_style	lj/smooth 2.5 3.0

read_data       liquid.T1.5.rho0.67.data
Reading data file ...
  orthogonal box = (0.0000000 0.0000000 0.0000000) to (17.142191 17.142191 17.142191)
  reading atoms ...
  3375 atoms
  reading velocities ...
  3375 velocities

neighbor	0.3 bin
neigh_modify	every 20 delay 0 check no

fix		1 all nve
timestep        0.002
thermo		50

reset_timestep  0
compute         myVACF all vacf

fix             fixVACF all vector 1 c_myVACF[4]
variable        diff_integ equal dt*trap(f_fixVACF)
variable        curVACF equal c_myVACF[4]

variable        step0 equal step
variable        step0 equal $(v_step0)
variable        step0 equal 0
variable        dtime equal (step-0)*dt
thermo_style	custom step time temp ke pe etotal press

run             2500
  update every 20 steps, delay 0 steps, check no
Step Time Temp KinEng PotEng TotEng Press
0            0     1.483755     2.224973   -4.2205892   -1.9956162    1.5390774
Averages over the last 26 of 51 rows, steps 1250 to 2500:
Temp KinEng PotEng TotEng Press
1.48124 2.22119 -4.21678 -1.99559 1.56208
Loop time of 9.23851 on 1 procs for 2500 steps with 3375 atoms

variable        diff_accum equal 0.066656629865639+0.577554366371498/(3*25)
unfix           fixVACF
write_data      liquid.T1.5.rho0.67.data
System init for write_data ...
print           "" append log.vacf.T1.5.rho0.67.txt screen no

next            loop_counter
jump            SELF loop
clear

pair_style	lj/smooth 2.5 3.0

read_data       liquid.T1.5.rho0.67.data
Reading data file ...
  orthogonal box = (0.0000000 0.0000000 0.0000000) to (17.142191 17.142191 17.142191)
  reading atoms ...
  3375 atoms
  reading velocities ...
  3375 velocities

neighbor	0.3 bin
neigh_modify	every 20 delay 0 check no

fix		1 all nve
timestep        0.002
thermo		50

reset_timestep  0
compute         myVACF all vacf

fix             fixVACF all vector 1 c_myVACF[4]
variable        diff_integ equal dt*trap(f_fixVACF)
variable        curVACF equal c_myVACF[4]

variable        step0 equal step
variable        step0 equal $(v_step0)
variable        step0 equal 0
variable        dtime equal (step-0)*dt
thermo_style	custom step time temp ke pe etotal press

run             2500
  update every 20 steps, delay 0 steps, check no
Step Time Temp KinEng PotEng TotEng Press
0            0    1.4924126    2.2379556   -4.2336482   -1.9956926    1.5326779
Averages over the last 26 of 51 rows, steps 1250 to 2500:
Temp KinEng PotEng TotEng Press
1.48193 2.22224 -4.21781 -1.99557 1.55627
Loop time of 9.22991 on 1 procs for 2500 steps with 3375 atoms

variable        diff_accum equal 0.0743573547505923+0.566731105593551/(3*25)
unfix           fixVACF
write_data      liquid.T1.5.rho0.67.data
System init for write_data ...
print           "" append log.vacf.T1.5.rho0.67.txt screen no

next            loop_counter
jump            SELF loop
clear

pair_style	lj/smooth 2.5 3.0

read_data       liquid.T1.5.rho0.67.data
Reading data file ...
  orthogonal box = (0.0000000 0.0000000 0.0000000) to (17.142191 17.142191 17.142191)
  reading atoms ...
  3375 atoms
  reading velocities ...
  3375 velocities

neighbor	0.3 bin
neigh_modify	every 20 delay 0 check no

fix		1 all nve
timestep        0.002
thermo		50

reset_timestep  0
compute         myVACF all vacf

fix             fixVACF all vector 1 c_myVACF[4]
variable        diff_integ equal dt*trap(f_fixVACF)
variable        curVACF equal c_myVACF[4]

variable        step0 equal step
variable        step0 equal $(v_step0)
variable        step0 equal 0
variable        dtime equal (step-0)*dt
thermo_style	custom step time temp ke pe etotal press

run             2500
  update every 20 steps, delay 0 steps, check no
Step Time Temp KinEng PotEng TotEng Press
0            0    1.4721256    2.2075341    -4.202757   -1.9952228    1.6240042
Averages over the last 26 of 51 rows, steps 1250 to 2500:
Temp KinEng PotEng TotEng Press
1.48198 2.22231 -4.21793 -1.99562 1.57675
Loop time of 9.20141 on 1 procs for 2500 steps with 3375 atoms

variable        diff_accum equal 0.0819137694918396+0.470124864759618/(3*25)
unfix           fixVACF
write_data      liquid.T1.5.rho0.67.data
System init for write_data ...
print           "" append log.vacf.T1.5.rho0.67.txt screen no

next            loop_counter
jump            SELF loop
clear

pair_style	lj/smooth 2.5 3.0

read_data       liquid.T1.5.rho0.67.data
Reading data file ...
  orthogonal box = (0.0000000 0.0000000 0.0000000) to (17.142191 17.142191 17.142191)
  reading atoms ...
  3375 atoms
  reading velocities ...
  3375 velocities

neighbor	0.3 bin
neigh_modify	every 20 delay 0 check no

fix		1 all nve
timestep        0.002
thermo		50

reset_timestep  0
compute         myVACF all vacf

fix             fixVACF all vector 1 c_myVACF[4]
variable        diff_integ equal dt*trap(f_fixVACF)
variable        curVACF equal c_myVACF[4]

variable        step0 equal step
variable        step0 equal $(v_step0)
variable        step0 equal 0
variable        dtime equal (step-0)*dt
thermo_style	custom step time temp ke pe etotal press

run             2500
  update every 20 steps, delay 0 steps, check no
Step Time Temp KinEng PotEng TotEng Press
0            0    1.4682267    2.2016875   -4.1972923   -1.9956048    1.6293406
Averages over the last 26 of 51 rows, steps 1250 to 2500:
Temp KinEng PotEng TotEng Press
1.48512 2.22702 -4.22242 -1.9954 1.53577
Loop time of 9.2244 on 1 procs for 2500 steps with 3375 atoms

variable        diff_accum equal 0.0881821010219678+0.63481532986691/(3*25)
unfix           fixVACF
write_data      liquid.T1.5.rho0.67.data
System init for write_data ...
print           "" append log.vacf.T1.5.rho0.67.txt screen no

next            loop_counter
jump            SELF loop
clear

pair_style	lj/smooth 2.5 3.0

read_data       liquid.T1.5.rho0.67.data
Reading data file ...
  orthogonal box = (0.0000000 0.0000000 0.0000000) to (17.142191 17.142191 17.142191)
  reading atoms ...
  3375 atoms
  reading velocities ...
  3375 velocities

neighbor	0.3 bin
neigh_modify	every 20 delay 0 check no

fix		1 all nve
timestep        0.002
thermo		50

reset_timestep  0
compute         myVACF all vacf

fix             fixVACF all vector 1 c_myVACF[4]
variable        diff_integ equal dt*trap(f_fixVACF)
variable        curVACF equal c_myVACF[4]

variable        step0 equal step
variable        step0 equal $(v_step0)
variable        step0 equal 0
variable        dtime equal (step-0)*dt
thermo_style	custom step time temp ke pe etotal press

run             2500
  update every 20 steps, delay 0 steps, check no
Step Time Temp KinEng PotEng TotEng Press
0            0    1.5051902    2.2571164   -4.2524632   -1.9953468    1.4081118
Averages over the last 26 of 51 rows, steps 1250 to 2500:
Temp KinEng PotEng TotEng Press
1.48003 2.21938 -4.21513 -1.99575 1.58874
Loop time of 9.19331 on 1 procs for 2500 steps with 3375 atoms

variable        diff_accum equal 0.0966463054201933+0.532765567772006/(3*25)
unfix           fixVACF
write_data      liquid.T1.5.rho0.67.data
System init for write_data ...
print           "" append log.vacf.T1.5.rho0.67.txt screen no

next            loop_counter
jump            SELF loop
clear

pair_style	lj/smooth 2.5 3.0

read_data       liquid.T1.5.rho0.67.data
Reading data file ...
  orthogonal box = (0.0000000 0.0000000 0.0000000) to (17.142191 17.142191 17.142191)
  reading atoms ...
  3375 atoms
  reading velocities ...
  3375 velocities

neighbor	0.3 bin
neigh_modify	every 20 delay 0 check no

fix		1 all nve
timestep        0.002
thermo		50

reset_timestep  0
compute         myVACF all vacf

fix             fixVACF all vector 1 c_myVACF[4]
variable        diff_integ equal dt*trap(f_fixVACF)
variable        curVACF equal c_myVACF[4]

variable        step0 equal step
variable        step0 equal $(v_step0)
variable        step0 equal 0
variable        dtime equal (step-0)*dt
thermo_style	custom step time temp ke pe etotal press

run             2500
  update every 20 steps, delay 0 steps, check no
Step Time Temp KinEng PotEng TotEng Press
0            0    1.4905359    2.2351414   -4.2306596   -1.9955182    1.4904532
Averages over the last 26 of 51 rows, steps 1250 to 2500:
Temp KinEng PotEng TotEng Press
1.48671 2.2294 -4.22532 -1.99591 1.57288
Loop time of 9.20188 on 1 procs for 2500 steps with 3375 atoms

variable        diff_accum equal 0.10374984632382+0.693606272322067/(3*25)
unfix           fixVACF
write_data      liquid.T1.5.rho0.67.data
System init for write_data ...
print           "" append log.vacf.T1.5.rho0.67.txt screen no

next            loop_counter
jump            SELF loop
clear

pair_style	lj/smooth 2.5 3.0

read_data       liquid.T1.5.rho0.67.data
Reading data file ...
  orthogonal box = (0.0000000 0.0000000 0.0000000) to (17.142191 17.142191 17.142191)
  reading atoms ...
  3375 atoms
  reading velocities ...
  3375 velocities

neighbor	0.3 bin
neigh_modify	every 20 delay 0 check no

fix		1 all nve
timestep        0.002
thermo		50

reset_timestep  0
compute         myVACF all vacf

fix             fixVACF all vector 1 c_myVACF[4]
variable        diff_integ equal dt*trap(f_fixVACF)
variable        curVACF equal c_myVACF[4]

variable        step0 equal step
variable        step0 equal $(v_step0)
variable        step0 equal 0
variable        dtime equal (step-0)*dt
thermo_style	custom step time temp ke pe etotal press

run             2500
  update every 20 steps, delay 0 steps, check no
Step Time Temp KinEng PotEng TotEng Press
0            0    1.4977302    2.2459297    -4.241915   -1.9959854    1.5106477
Averages over the last 26 of 51 rows, steps 1250 to 2500:
Temp KinEng PotEng TotEng Press
1.48162 2.22176 -4.21742 -1.99566 1.57008
Loop time of 9.24328 on 1 procs for 2500 steps with 3375 atoms

variable        diff_accum equal 0.112997929954781+0.629558724112214/(3*25)
unfix           fixVACF
write_data      liquid.T1.5.rho0.67.data
System init for write_data ...
print           "" append log.vacf.T1.5.rho0.67.txt screen no

next            loop_counter
jump            SELF loop
clear

pair_style	lj/smooth 2.5 3.0

read_data       liquid.T1.5.rho0.67.data
Reading data file ...
  orthogonal box = (0.0000000 0.0000000 0.0000000) to (17.142191 17.142191 17.142191)
  reading atoms ...
  3375 atoms
  reading velocities ...
  3375 velocities

neighbor	0.3 bin
neigh_modify	every 20 delay 0 check no

fix		1 all nve
timestep        0.002
thermo		50

reset_timestep  0
compute         myVACF all vacf

fix             fixVACF all vector 1 c_myVACF[4]
variable        diff_integ equal dt*trap(f_fixVACF)
variable        curVACF equal c_myVACF[4]

variable        step0 equal step
variable        step0 equal $(v_step0)
variable        step0 equal 0
variable        dtime equal (step-0)*dt
thermo_style	custom step time temp ke pe etotal press

run             2500
  update every 20 steps, delay 0 steps, check no
Step Time Temp KinEng PotEng TotEng Press
0            0    1.4964443    2.2440013   -4.2401457   -1.9961444    1.4865833
Averages over the last 26 of 51 rows, steps 1250 to 2500:
Temp KinEng PotEng TotEng Press
1.48264 2.22331 -4.21912 -1.99581 1.58303
Loop time of 9.22136 on 1 procs for 2500 steps with 3375 atoms

variable        diff_accum equal 0.121392046276277+0.563760860725891/(3*25)
unfix           fixVACF
write_data      liquid.T1.5.rho0.67.data
System init for write_data ...
print           "" append log.vacf.T1.5.rho0.67.txt screen no

next            loop_counter
jump            SELF loop
clear

pair_style	lj/smooth 2.5 3.0

read_data       liquid.T1.5.rho0.67.data
Reading data file ...
  orthogonal box = (0.0000000 0.0000000 0.0000000) to (17.142191 17.142191 17.142191)
  reading atoms ...
  3375 atoms
  reading velocities ...
  3375 velocities

neighbor	0.3 bin
neigh_modify	every 20 delay 0 check no

fix		1 all nve
timestep        0.002
thermo		50

reset_timestep  0
compute         myVACF all vacf

fix             fixVACF all vector 1 c_myVACF[4]
variable        diff_integ equal dt*trap(f_fixVACF)
variable        curVACF equal c_myVACF[4]

variable        step0 equal step
variable        step0 equal $(v_step0)
variable        step0 equal 0
variable        dtime equal (step-0)*dt
thermo_style	custom step time temp ke pe etotal press

run             2500
  update every 20 steps, delay 0 steps, check no
Step Time Temp KinEng PotEng TotEng Press
0            0    1.4855586    2.2276776   -4.2235895   -1.9959119    1.5368262
Averages over the last 26 of 51 rows, steps 1250 to 2500:
Temp KinEng PotEng TotEng Press
1.47797 2.2163 -4.2121 -1.9958 1.58067
Loop time of 9.18348 on 1 procs for 2500 steps with 3375 atoms

variable        diff_accum equal 0.128908857752622+0.603823430608501/(3*25)
unfix           fixVACF
write_data      liquid.T1.5.rho0.67.data
System init for write_data ...
print           "" append log.vacf.T1.5.rho0.67.txt screen no

next            loop_counter
jump            SELF loop
clear

pair_style	lj/smooth 2.5 3.0

read_data       liquid.T1.5.rho0.67.data
Reading data file ...
  orthogonal box = (0.0000000 0.0000000 0.0000000) to (17.142191 17.142191 17.142191)
  reading atoms ...
  3375 atoms
  reading velocities ...
  3375 velocities

neighbor	0.3 bin
neigh_modify	every 20 delay 0 check no

fix		1 all nve
timestep        0.002
thermo		50

reset_timestep  0
compute         myVACF all vacf

fix             fixVACF all vector 1 c_myVACF[4]
variable        diff_integ equal dt*trap(f_fixVACF)
variable        curVACF equal c_myVACF[4]

variable        step0 equal step
variable        step0 equal $(v_step0)
variable        step0 equal 0
variable        dtime equal (step-0)*dt
thermo_style	custom step time temp ke pe etotal press

run             2500
  update every 20 steps, delay 0 steps, check no
Step Time Temp KinEng PotEng TotEng Press
0            0    1.4607836    2.1905262   -4.1871618   -1.9966356    1.6528748
Averages over the last 26 of 51 rows, steps 1250 to 2500:
Temp KinEng PotEng TotEng Press
1.47939 2.21843 -4.21417 -1.99575 1.56867
Loop time of 9.19417 on 1 procs for 2500 steps with 3375 atoms

variable        diff_accum equal 0.136959836827402+0.598183738651811/(3*25)
unfix           fixVACF
write_data      liquid.T1.5.rho0.67.data
System init for write_data ...
print           "" append log.vacf.T1.5.rho0.67.txt screen no

next            loop_counter
jump            SELF loop
clear

pair_style	lj/smooth 2.5 3.0

read_data       liquid.T1.5.rho0.67.data
Reading data file ...
  orthogonal box = (0.0000000 0.0000000 0.0000000) to (17.142191 17.142191 17.142191)
  reading atoms ...
  3375 atoms
  reading velocities ...
  3375 velocities

neighbor	0.3 bin
neigh_modify	every 20 delay 0 check no

fix		1 all nve
timestep        0.002
thermo		50

reset_timestep  0
compute         myVACF all vacf

fix             fixVACF all vector 1 c_myVACF[4]
variable        diff_integ equal dt*trap(f_fixVACF)
variable        curVACF equal c_myVACF[4]

variable        step0 equal step
variable        step0 equal $(v_step0)
variable        step0 equal 0
variable        dtime equal (step-0)*dt
thermo_style	custom step time temp ke pe etotal press

run             2500
  update every 20 steps, delay 0 steps, check no
Step Time Temp KinEng PotEng TotEng Press
0            0     1.483401    2.2244422    -4.219903   -1.9954608    1.5573549
Averages over the last 26 of 51 rows, steps 1250 to 2500:
Temp KinEng PotEng TotEng Press
1.48194 2.22225 -4.21782 -1.99557 1.58569
Loop time of 9.20152 on 1 procs for 2500 steps with 3375 atoms

variable        diff_accum equal 0.144935620009426+0.522656655218172/(3*25)
unfix           fixVACF
write_data      liquid.T1.5.rho0.67.data
System init for write_data ...
print           "" append log.vacf.T1.5.rho0.67.txt screen no

next            loop_counter
jump            SELF loop
clear

pair_style	lj/smooth 2.5 3.0

read_data       liquid.T1.5.rho0.67.data
Reading data file ...
  orthogonal box = (0.0000000 0.0000000 0.0000000) to (17.142191 17.142191 17.142191)
  reading atoms ...
  3375 atoms
  reading velocities ...
  3375 velocities

neighbor	0.3 bin
neigh_modify	every 20 delay 0 check no

fix		1 all nve
timestep        0.002
thermo		50

reset_timestep  0
compute         myVACF all vacf

fix             fixVACF all vector 1 c_myVACF[4]
variable        diff_integ equal dt*trap(f_fixVACF)
variable        curVACF equal c_myVACF[4]

variable        step0 equal step
variable        step0 equal $(v_step0)
variable        step0 equal 0
variable        dtime equal (step-0)*dt
thermo_style	custom step time temp ke pe etotal press

run             2500
  update every 20 steps, delay 0 steps, check no
Step Time Temp KinEng PotEng TotEng Press
0            0    1.4833891    2.2244243   -4.2201884   -1.9957641    1.5601688
Averages over the last 26 of 51 rows, steps 1250 to 2500:
Temp KinEng PotEng TotEng Press
1.48428 2.22576 -4.22135 -1.99559 1.56054
Loop time of 9.2735 on 1 procs for 2500 steps with 3375 atoms

variable        diff_accum equal 0.151904375412335+0.569470883097449/(3*25)
unfix           fixVACF
write_data      liquid.T1.5.rho0.67.data
System init for write_data ...
print           "" append log.vacf.T1.5.rho0.67.txt screen no

next            loop_counter
jump            SELF loop
clear

pair_style	lj/smooth 2.5 3.0

read_data       liquid.T1.5.rho0.67.data
Reading data file ...
  orthogonal box = (0.0000000 0.0000000 0.0000000) to (17.142191 17.142191 17.142191)
  reading atoms ...
  3375 atoms
  reading velocities ...
  3375 velocities

neighbor	0.3 bin
neigh_modify	every 20 delay 0 check no

fix		1 all nve
timestep        0.002
thermo		50

reset_timestep  0
compute         myVACF all vacf

fix             fixVACF all vector 1 c_myVACF[4]
variable        diff_integ equal dt*trap(f_fixVACF)
variable        curVACF equal c_myVACF[4]

variable        step0 equal step
variable        step0 equal $(v_step0)
variable        step0 equal 0
variable        dtime equal (step-0)*dt
thermo_style	custom step time temp ke pe etotal press

run             2500
  update every 20 steps, delay 0 steps, check no
Step Time Temp KinEng PotEng TotEng Press
0            0    1.4971986    2.2451325   -4.2407661   -1.9956336     1.501148
Averages over the last 26 of 51 rows, steps 1250 to 2500:
Temp KinEng PotEng TotEng Press
1.48591 2.2282 -4.22385 -1.99565 1.55622
Loop time of 9.24215 on 1 procs for 2500 steps with 3375 atoms

variable        diff_accum equal 0.159497320520301+0.588744619181333/(3*25)
unfix           fixVACF
write_data      liquid.T1.5.rho0.67.data
System init for write_data ...
print           "" append log.vacf.T1.5.rho0.67.txt screen no

next            loop_counter
jump            SELF loop
clear

pair_style	lj/smooth 2.5 3.0

read_data       liquid.T1.5.rho0.67.data
Reading data file ...
  orthogonal box = (0.0000000 0.0000000 0.0000000) to (17.142191 17.142191 17.142191)
  reading atoms ...
  3375 atoms
  reading velocities ...
  3375 velocities

neighbor	0.3 bin
neigh_modify	every 20 delay 0 check no

fix		1 all nve
timestep        0.002
thermo		50

reset_timestep  0
compute         myVACF all vacf

fix             fixVACF all vector 1 c_myVACF[4]
variable        diff_integ equal dt*trap(f_fixVACF)
variable        curVACF equal c_myVACF[4]

variable        step0 equal step
variable        step0 equal $(v_step0)
variable        step0 equal 0
variable        dtime equal (step-0)*dt
thermo_style	custom step time temp ke pe etotal press

run             2500
  update every 20 steps, delay 0 steps, check no
Step Time Temp KinEng PotEng TotEng Press
0            0    1.4879915     2.231326   -4.2268295   -1.9955035    1.5605135
Averages over the last 26 of 51 rows, steps 1250 to 2500:
Temp KinEng PotEng TotEng Press
1.48202 2.22237 -4.21822 -1.99586 1.59346
Loop time of 9.17604 on 1 procs for 2500 steps with 3375 atoms

variable        diff_accum equal 0.167347248776052+0.618795566094163/(3*25)
unfix           fixVACF
write_data      liquid.T1.5.rho0.67.data
System init for write_data ...
print           "" append log.vacf.T1.5.rho0.67.txt screen no

next            loop_counter
jump            SELF loop
clear

pair_style	lj/smooth 2.5 3.0

read_data       liquid.T1.5.rho0.67.data
Reading data file ...
  orthogonal box = (0.0000000 0.0000000 0.0000000) to (17.142191 17.142191 17.142191)
  reading atoms ...
  3375 atoms
  reading velocities ...
  3375 velocities

neighbor	0.3 bin
neigh_modify	every 20 delay 0 check no

fix		1 all nve
timestep        0.002
thermo		50

reset_timestep  0
compute         myVACF all vacf

fix             fixVACF all vector 1 c_myVACF[4]
variable        diff_integ equal dt*trap(f_fixVACF)
variable        curVACF equal c_myVACF[4]

variable        step0 equal step
variable        step0 equal $(v_step0)
variable        step0 equal 0
variable        dtime equal (step-0)*dt
thermo_style	custom step time temp ke pe etotal press

run             2500
  update every 20 steps, delay 0 steps, check no
Step Time Temp KinEng PotEng TotEng Press
0            0    1.4723605    2.2078863   -4.2034263   -1.9955399    1.6456099
Averages over the last 26 of 51 rows, steps 1250 to 2500:
Temp KinEng PotEng TotEng Press
1.48104 2.2209 -4.21662 -1.99572 1.58922
Loop time of 9.17927 on 1 procs for 2500 steps with 3375 atoms

variable        diff_accum equal 0.175597856323974+0.526241095715755/(3*25)
unfix           fixVACF
write_data      liquid.T1.5.rho0.67.data
System init for write_data ...
print           "" append log.vacf.T1.5.rho0.67.txt screen no

next            loop_counter
jump            SELF loop
clear

pair_style	lj/smooth 2.5 3.0

read_data       liquid.T1.5.rho0.67.data
Reading data file ...
  orthogonal box = (0.0000000 0.0000000 0.0000000) to (17.142191 17.142191 17.142191)
  reading atoms ...
  3375 atoms
  reading velocities ...
  3375 velocities

neighbor	0.3 bin
neigh_modify	every 20 delay 0 check no

fix		1 all nve
timestep        0.002
thermo		50

reset_timestep  0
compute         myVACF all vacf

fix             fixVACF all vector 1 c_myVACF[4]
variable        diff_integ equal dt*trap(f_fixVACF)
variable        curVACF equal c_myVACF[4]

variable        step0 equal step
variable        step0 equal $(v_step0)
variable        step0 equal 0
variable        dtime equal (step-0)*dt
thermo_style	custom step time temp ke pe etotal press

run             2500
  update every 20 steps, delay 0 steps, check no
Step Time Temp KinEng PotEng TotEng Press
0            0    1.4682297    2.2016921   -4.1971772   -1.9954851    1.6366426
Averages over the last 26 of 51 rows, steps 1250 to 2500:
Temp KinEng PotEng TotEng Press
1.48533 2.22733 -4.22321 -1.99589 1.57649
Loop time of 9.246 on 1 procs for 2500 steps with 3375 atoms

variable        diff_accum equal 0.182614404266851+0.523431477987925/(3*25)
unfix           fixVACF
write_data      liquid.T1.5.rho0.67.data
System init for write_data ...
print           "" append log.vacf.T1.5.rho0.67.txt screen no

next            loop_counter
jump            SELF loop

Diffusivity estimate (GK): 0.189593490640023
