shell           rm log.sacf.T1.5.rho0.67.txt
units		lj
atom_style	atomic

pair_style	lj/smooth 2.5 3.0

read_data       liquid.T1.5.rho0.67.data
Reading data file ...
  orthogonal box = (0.0000000 0.0000000 0.0000000) to (17.142191 17.142191 17.142191)
  reading atoms ...
  3375 atoms
  reading velocities ...
  3375 velocities

neighbor	0.3 bin
neigh_modify	every 20 delay 0 check no

fix             1 all nve
timestep        0.002

variable        pxy equal pxy
variable        pxz equal pxz
variable        pyz equal pyz

fix             SACF all ave/correlate 5 1000 5000 v_pxy v_pxz v_pyz type auto file log.sacf.gk.T1.5.rho0.67.txt ave running

thermo_style	custom step time temp ke pe etotal press
thermo          200

variable        gkscale equal vol/1.5*5*dt

variable        vxy equal trap(f_SACF[3])*33.5820895522388
variable        vxz equal trap(f_SACF[4])*33.5820895522388
variable        vyz equal trap(f_SACF[5])*33.5820895522388

variable        step0 equal $(step)
variable        step0 equal 0
variable        dtime equal (step-0)*dt
fix             print_shear all print 1 "$(v_dtime) $(pxy) $(pxz) $(pyz)" file log.shear.T1.5.rho0.67.txt screen no title "Time Pxy Pxz Pyz"
run		125000
  update every 20 steps, delay 0 steps, check no
Step Time Temp KinEng PotEng TotEng Press
0            0    1.4889651    2.2327858   -4.2286959     -1.99591    1.5634661
Averages over the last 313 of 626 rows, steps 62600 to 125000:
Temp KinEng PotEng TotEng Press
1.48272 2.22342 -4.21911 -1.99569 1.57423
Loop time of 467.006 on 1 procs for 125000 steps with 3375 atoms

write_data      liquid.T1.5.rho0.67.data
System init for write_data ...

variable        eta equal (2.0095868047755+0.86032352540453+1.28636143588835)/3
Viscosity estimate (GK): 1.38542392202279
