shell           rm log.vacf.T1.4.rho0.64.txt
units		lj
atom_style	atomic

variable        loop_counter loop 25
variable        diff_accum equal 0

label           loop
clear

pair_style	lj/smooth 2.5 3.0

read_data       liquid.T1.4.rho0.64.data
Reading data file ...
  orthogonal box = (0.0000000 0.0000000 0.0000000) to (17.405958 17.405958 17.405958)
  reading atoms ...
  3375 atoms
  reading velocities ...
  3375 velocities

neighbor	0.3 bin
neigh_modify	every 20 delay 0 check no

fix		1 all nve
timestep        0.002
thermo		50

reset_timestep  0
compute         myVACF all vacf

fix             fixVACF all vector 1 c_myVACF[4]
variable        diff_integ equal dt*trap(f_fixVACF)
variable        curVACF equal c_myVACF[4]

variable        step0 equal step
variable        step0 equal $(v_step0)
variable        step0 equal 0
variable        dtime equal (step-0)*dt
thermo_style	custom step time temp ke pe etotal press

run             2500
  update every 20 steps, delay 0 steps, check no
Step Time Temp KinEng PotEng TotEng Press
0            0    1.3723796    2.0579595   -4.0706472   -2.0126877    1.0769056
Averages over the last 26 of 51 rows, steps 1250 to 2500:
Temp KinEng PotEng TotEng Press
1.38311 2.07406 -4.08687 -2.01281 1.0565
Loop time of 8.87688 on 1 procs for 2500 steps with 3375 atoms

variable        diff_accum equal 0+0.59407339590227/(3*25)
unfix           fixVACF
write_data      liquid.T1.4.rho0.64.data
System init for write_data ...
print           "" append log.vacf.T1.4.rho0.64.txt screen no

next            loop_counter
jump            SELF loop
clear

pair_style	lj/smooth 2.5 3.0

read_data       liquid.T1.4.rho0.64.data
Reading data file ...
  orthogonal box = (0.0000000 0.0000000 0.0000000) to (17.405958 17.405958 17.405958)
  reading atoms ...
  3375 atoms
  reading velocities ...
  3375 velocities

neighbor	0.3 bin
neigh_modify	every 20 delay 0 check no

fix		1 all nve
timestep        0.002
thermo		50

reset_timestep  0
compute         myVACF all vacf

fix             fixVACF all vector 1 c_myVACF[4]
variable        diff_integ equal dt*trap(f_fixVACF)
variable        curVACF equal c_myVACF[4]

variable        step0 equal step
variable        step0 equal $(v_step0)
variable        step0 equal 0
variable        dtime equal (step-0)*dt
thermo_style	custom step time temp ke pe etotal press

run             2500
  update every 20 steps, delay 0 steps, check no
Step Time Temp KinEng PotEng TotEng Press
0            0    1.3784764    2.0671019   -4.0797374   -2.0126356    1.0764664
Averages over the last 26 of 51 rows, steps 1250 to 2500:
Temp KinEng PotEng TotEng Press
1.38286 2.07367 -4.08633 -2.01266 1.05842
Loop time of 9.14772 on 1 procs for 2500 steps with 3375 atoms

variable        diff_accum equal 0.00792097861203027+0.618985374522703/(3*25)
unfix           fixVACF
write_data      liquid.T1.4.rho0.64.data
System init for write_data ...
print           "" append log.vacf.T1.4.rho0.64.txt screen no

next            loop_counter
jump            SELF loop
clear

pair_style	lj/smooth 2.5 3.0

read_data       liquid.T1.4.rho0.64.data
Reading data file ...
  orthogonal box = (0.0000000 0.0000000 0.0000000) to (17.405958 17.405958 17.405958)
  reading atoms ...
  3375 atoms
  reading velocities ...
  3375 velocities

neighbor	0.3 bin
neigh_modify	every 20 delay 0 check no

fix		1 all nve
timestep        0.002
thermo		50

reset_timestep  0
compute         myVACF all vacf

fix             fixVACF all vector 1 c_myVACF[4]
variable        diff_integ equal dt*trap(f_fixVACF)
variable        curVACF equal c_myVACF[4]

variable        step0 equal step
variable        step0 equal $(v_step0)
variable        step0 equal 0
variable        dtime equal (step-0)*dt
thermo_style	custom step time temp ke pe etotal press

run             2500
  update every 20 steps, delay 0 steps, check no
Step Time Temp KinEng PotEng TotEng Press
0            0     1.388123    2.0815676   -4.0941582   -2.0125906    1.0765773
Averages over the last 26 of 51 rows, steps 1250 to 2500:
Temp KinEng PotEng TotEng Press
1.3849 2.07674 -4.08956 -2.01282 1.04248
Loop time of 8.90455 on 1 procs for 2500 steps with 3375 atoms

variable        diff_accum equal 0.0161741169389996+0.580284674780779/(3*25)
unfix           fixVACF
write_data      liquid.T1.4.rho0.64.data
System init for write_data ...
print           "" append log.vacf.T1.4.rho0.64.txt screen no

next            loop_counter
jump            SELF loop
clear

pair_style	lj/smooth 2.5 3.0

read_data       liquid.T1.4.rho0.64.data
Reading data file ...
  orthogonal box = (0.0000000 0.0000000 0.0000000) to (17.405958 17.405958 17.405958)
  reading atoms ...
  3375 atoms
  reading velocities ...
  3375 velocities

neighbor	0.3 bin
neigh_modify	every 20 delay 0 check no

fix		1 all nve
timestep        0.002
thermo		50

reset_timestep  0
compute         myVACF all vacf

fix             fixVACF all vector 1 c_myVACF[4]
variable        diff_integ equal dt*trap(f_fixVACF)
variable        curVACF equal c_myVACF[4]

variable        step0 equal step
variable        step0 equal $(v_step0)
variable        step0 equal 0
variable        dtime equal (step-0)*dt
thermo_style	custom step time temp ke pe etotal press

run             2500
  update every 20 steps, delay 0 steps, check no
Step Time Temp KinEng PotEng TotEng Press
0            0    1.4010131     2.100897   -4.1135105   -2.0126136   0.95853815
Averages over the last 26 of 51 rows, steps 1250 to 2500:
Temp KinEng PotEng TotEng Press
1.38637 2.07894 -4.09168 -2.01274 1.05345
Loop time of 8.85946 on 1 procs for 2500 steps with 3375 atoms

variable        diff_accum equal 0.0239112459360767+0.539372004776047/(3*25)
unfix           fixVACF
write_data      liquid.T1.4.rho0.64.data
System init for write_data ...
print           "" append log.vacf.T1.4.rho0.64.txt screen no

next            loop_counter
jump            SELF loop
clear

pair_style	lj/smooth 2.5 3.0

read_data       liquid.T1.4.rho0.64.data
Reading data file ...
  orthogonal box = (0.0000000 0.0000000 0.0000000) to (17.405958 17.405958 17.405958)
  reading atoms ...
  3375 atoms
  reading velocities ...
  3375 velocities

neighbor	0.3 bin
neigh_modify	every 20 delay 0 check no

fix		1 all nve
timestep        0.002
thermo		50

reset_timestep  0
compute         myVACF all vacf

fix             fixVACF all vector 1 c_myVACF[4]
variable        diff_integ equal dt*trap(f_fixVACF)
variable        curVACF equal c_myVACF[4]

variable        step0 equal step
variable        step0 equal $(v_step0)
variable        step0 equal 0
variable        dtime equal (step-0)*dt
thermo_style	custom step time temp ke pe etotal press

run             2500
  update every 20 steps, delay 0 steps, check no
Step Time Temp KinEng PotEng TotEng Press
0            0    1.3866324    2.0793324   -4.0923112   -2.0129788   0.99725569
Averages over the last 26 of 51 rows, steps 1250 to 2500:
Temp KinEng PotEng TotEng Press
1.38688 2.0797 -4.09268 -2.01298 1.07587
Loop time of 8.86323 on 1 procs for 2500 steps with 3375 atoms

variable        diff_accum equal 0.031102872666424+0.498333750463777/(3*25)
unfix           fixVACF
write_data      liquid.T1.4.rho0.64.data
System init for write_data ...
print           "" append log.vacf.T1.4.rho0.64.txt screen no

next            loop_counter
jump            SELF loop
clear

pair_style	lj/smooth 2.5 3.0

read_data       liquid.T1.4.rho0.64.data
Reading data file ...
  orthogonal box = (0.0000000 0.0000000 0.0000000) to (17.405958 17.405958 17.405958)
  reading atoms ...
  3375 atoms
  reading velocities ...
  3375 velocities

neighbor	0.3 bin
neigh_modify	every 20 delay 0 check no

fix		1 all nve
timestep        0.002
thermo		50

reset_timestep  0
compute         myVACF all vacf

fix             fixVACF all vector 1 c_myVACF[4]
variable        diff_integ equal dt*trap(f_fixVACF)
variable        curVACF equal c_myVACF[4]

variable        step0 equal step
variable        step0 equal $(v_step0)
variable        step0 equal 0
variable        dtime equal (step-0)*dt
thermo_style	custom step time temp ke pe etotal press

run             2500
  update every 20 steps, delay 0 steps, check no
Step Time Temp KinEng PotEng TotEng Press
0            0    1.4055704    2.1077308   -4.1208388   -2.0131079    0.9844343
Averages over the last 26 of 51 rows, steps 1250 to 2500:
Temp KinEng PotEng TotEng Press
1.38959 2.08377 -4.09646 -2.01268 1.03007
Loop time of 8.88117 on 1 procs for 2500 steps with 3375 atoms

variable        diff_accum equal 0.0377473226726077+0.608589350743366/(3*25)
unfix           fixVACF
write_data      liquid.T1.4.rho0.64.data
System init for write_data ...
print           "" append log.vacf.T1.4.rho0.64.txt screen no

next            loop_counter
jump            SELF loop
clear

pair_style	lj/smooth 2.5 3.0

read_data       liquid.T1.4.rho0.64.data
Reading data file ...
  orthogonal box = (0.0000000 0.0000000 0.0000000) to (17.405958 17.405958 17.405958)
  reading atoms ...
  3375 atoms
  reading velocities ...
  3375 velocities

neighbor	0.3 bin
neigh_modify	every 20 delay 0 check no

fix		1 all nve
timestep        0.002
thermo		50

reset_timestep  0
compute         myVACF all vacf

fix             fixVACF all vector 1 c_myVACF[4]
variable        diff_integ equal dt*trap(f_fixVACF)
variable        curVACF equal c_myVACF[4]

variable        step0 equal step
variable        step0 equal $(v_step0)
variable        step0 equal 0
variable        dtime equal (step-0)*dt
thermo_style	custom step time temp ke pe etotal press

run             2500
  update every 20 steps, delay 0 steps, check no
Step Time Temp KinEng PotEng TotEng Press
0            0    1.3863343    2.0788852   -4.0920576   -2.0131724    1.0952552
Averages over the last 26 of 51 rows, steps 1250 to 2500:
Temp KinEng PotEng TotEng Press
1.38607 2.07849 -4.09117 -2.01267 1.03975
Loop time of 8.85059 on 1 procs for 2500 steps with 3375 atoms

variable        diff_accum equal 0.0458618473491859+0.574437229438271/(3*25)
unfix           fixVACF
write_data      liquid.T1.4.rho0.64.data
System init for write_data ...
print           "" append log.vacf.T1.4.rho0.64.txt screen no

next            loop_counter
jump            SELF loop
clear

pair_style	lj/smooth 2.5 3.0

read_data       liquid.T1.4.rho0.64.data
Reading data file ...
  orthogonal box = (0.0000000 0.0000000 0.0000000) to (17.405958 17.405958 17.405958)
  reading atoms ...
  3375 atoms
  reading velocities ...
  3375 velocities

neighbor	0.3 bin
neigh_modify	every 20 delay 0 check no

fix		1 all nve
timestep        0.002
thermo		50

reset_timestep  0
compute         myVACF all vacf

fix             fixVACF all vector 1 c_myVACF[4]
variable        diff_integ equal dt*trap(f_fixVACF)
variable        curVACF equal c_myVACF[4]

variable        step0 equal step
variable        step0 equal $(v_step0)
variable        step0 equal 0
variable        dtime equal (step-0)*dt
thermo_style	custom step time temp ke pe etotal press

run             2500
  update every 20 steps, delay 0 steps, check no
Step Time Temp KinEng PotEng TotEng Press
0            0    1.3969306     2.094775   -4.1072593   -2.0124843   0.95312378
Averages over the last 26 of 51 rows, steps 1250 to 2500:
Temp KinEng PotEng TotEng Press
1.38583 2.07813 -4.09092 -2.01279 1.05982
Loop time of 8.83351 on 1 procs for 2500 steps with 3375 atoms

variable        diff_accum equal 0.0535210104083628+0.596202085632826/(3*25)
unfix           fixVACF
write_data      liquid.T1.4.rho0.64.data
System init for write_data ...
print           "" append log.vacf.T1.4.rho0.64.txt screen no

next            loop_counter
jump            SELF loop
clear

pair_style	lj/smooth 2.5 3.0

read_data       liquid.T1.4.rho0.64.data
Reading data file ...
  orthogonal box = (0.0000000 0.0000000 0.0000000) to (17.405958 17.405958 17.405958)
  reading atoms ...
  3375 atoms
  reading velocities ...
  3375 velocities

neighbor	0.3 bin
neigh_modify	every 20 delay 0 check no

fix		1 all nve
timestep        0.002
thermo		50

reset_timestep  0
compute         myVACF all vacf

fix             fixVACF all vector 1 c_myVACF[4]
variable        diff_integ equal dt*trap(f_fixVACF)
variable        curVACF equal c_myVACF[4]

variable        step0 equal step
variable        step0 equal $(v_step0)
variable        step0 equal 0
variable        dtime equal (step-0)*dt
thermo_style	custom step time temp ke pe etotal press

run             2500
  update every 20 steps, delay 0 steps, check no
Step Time Temp KinEng PotEng TotEng Press
0            0    1.3966419    2.0943421   -4.1068598   -2.0125177    1.0182164
Averages over the last 26 of 51 rows, steps 1250 to 2500:
Temp KinEng PotEng TotEng Press
1.38638 2.07895 -4.09163 -2.01268 1.0558
Loop time of 8.82448 on 1 procs for 2500 steps with 3375 atoms

variable        diff_accum equal 0.0614703715501338+0.608804382475986/(3*25)
unfix           fixVACF
write_data      liquid.T1.4.rho0.64.data
System init for write_data ...
print           "" append log.vacf.T1.4.rho0.64.txt screen no

next            loop_counter
jump            SELF loop
clear

pair_style	lj/smooth 2.5 3.0

read_data       liquid.T1.4.rho0.64.data
Reading data file ...
  orthogonal box = (0.0000000 0.0000000 0.0000000) to (17.405958 17.405958 17.405958)
  reading atoms ...
  3375 atoms
  reading velocities ...
  3375 velocities

neighbor	0.3 bin
neigh_modify	every 20 delay 0 check no

fix		1 all nve
timestep        0.002
thermo		50

reset_timestep  0
compute         myVACF all vacf

fix             fixVACF all vector 1 c_myVACF[4]
variable        diff_integ equal dt*trap(f_fixVACF)
variable        curVACF equal c_myVACF[4]

variable        step0 equal step
variable        step0 equal $(v_step0)
variable        step0 equal 0
variable        dtime equal (step-0)*dt
thermo_style	custom step time temp ke pe etotal press

run             2500
  update every 20 steps, delay 0 steps, check no
Step Time Temp KinEng PotEng TotEng Press
0            0     1.396407    2.0939899   -4.1068407   -2.0128508     1.028859
Averages over the last 26 of 51 rows, steps 1250 to 2500:
Temp KinEng PotEng TotEng Press
1.38513 2.07707 -4.08975 -2.01268 1.05349
Loop time of 8.8393 on 1 procs for 2500 steps with 3375 atoms

variable        diff_accum equal 0.0695877633164803+0.601147018743011/(3*25)
unfix           fixVACF
write_data      liquid.T1.4.rho0.64.data
System init for write_data ...
print           "" append log.vacf.T1.4.rho0.64.txt screen no

next            loop_counter
jump            SELF loop
clear

pair_style	lj/smooth 2.5 3.0

read_data       liquid.T1.4.rho0.64.data
Reading data file ...
  orthogonal box = (0.0000000 0.0000000 0.0000000) to (17.405958 17.405958 17.405958)
  reading atoms ...
  3375 atoms
  reading velocities ...
  3375 velocities

neighbor	0.3 bin
neigh_modify	every 20 delay 0 check no

fix		1 all nve
timestep        0.002
thermo		50

reset_timestep  0
compute         myVACF all vacf

fix             fixVACF all vector 1 c_myVACF[4]
variable        diff_integ equal dt*trap(f_fixVACF)
variable        curVACF equal c_myVACF[4]

variable        step0 equal step
variable        step0 equal $(v_step0)
variable        step0 equal 0
variable        dtime equal (step-0)*dt
thermo_style	custom step time temp ke pe etotal press

run             2500
  update every 20 steps, delay 0 steps, check no
Step Time Temp KinEng PotEng TotEng Press
0            0    1.4103077    2.1148348   -4.1273588   -2.0125241   0.95377328
Averages over the last 26 of 51 rows, steps 1250 to 2500:
Temp KinEng PotEng TotEng Press
1.38041 2.07 -4.08259 -2.0126 1.06014
Loop time of 8.81925 on 1 procs for 2500 steps with 3375 atoms

variable        diff_accum equal 0.0776030568997204+0.520364075687973/(3*25)
unfix           fixVACF
write_data      liquid.T1.4.rho0.64.data
System init for write_data ...
print           "" append log.vacf.T1.4.rho0.64.txt screen no

next            loop_counter
jump            SELF loop
clear

pair_style	lj/smooth 2.5 3.0

read_data       liquid.T1.4.rho0.64.data
Reading data file ...
  orthogonal box = (0.0000000 0.0000000 0.0000000) to (17.405958 17.405958 17.405958)
  reading atoms ...
  3375 atoms
  reading velocities ...
  3375 velocities

neighbor	0.3 bin
neigh_modify	every 20 delay 0 check no

fix		1 all nve
timestep        0.002
thermo		50

reset_timestep  0
compute         myVACF all vacf

fix             fixVACF all vector 1 c_myVACF[4]
variable        diff_integ equal dt*trap(f_fixVACF)
variable        curVACF equal c_myVACF[4]

variable        step0 equal step
variable        step0 equal $(v_step0)
variable        step0 equal 0
variable        dtime equal (step-0)*dt
thermo_style	custom step time temp ke pe etotal press

run             2500
  update every 20 steps, delay 0 steps, check no
Step Time Temp KinEng PotEng TotEng Press
0            0    1.3784963    2.0671317   -4.0795853   -2.0124535    1.0591406
Averages over the last 26 of 51 rows, steps 1250 to 2500:
Temp KinEng PotEng TotEng Press
1.38569 2.07792 -4.09076 -2.01284 1.05339
Loop time of 8.83305 on 1 procs for 2500 steps with 3375 atoms

variable        diff_accum equal 0.08454124457556+0.55724222841878/(3*25)
unfix           fixVACF
write_data      liquid.T1.4.rho0.64.data
System init for write_data ...
print           "" append log.vacf.T1.4.rho0.64.txt screen no

next            loop_counter
jump            SELF loop
clear

pair_style	lj/smooth 2.5 3.0

read_data       liquid.T1.4.rho0.64.data
Reading data file ...
  orthogonal box = (0.0000000 0.0000000 0.0000000) to (17.405958 17.405958 17.405958)
  reading atoms ...
  3375 atoms
  reading velocities ...
  3375 velocities

neighbor	0.3 bin
neigh_modify	every 20 delay 0 check no

fix		1 all nve
timestep        0.002
thermo		50

reset_timestep  0
compute         myVACF all vacf

fix             fixVACF all vector 1 c_myVACF[4]
variable        diff_integ equal dt*trap(f_fixVACF)
variable        curVACF equal c_myVACF[4]

variable        step0 equal step
variable        step0 equal $(v_step0)
variable        step0 equal 0
variable        dtime equal (step-0)*dt
thermo_style	custom step time temp ke pe etotal press

run             2500
  update every 20 steps, delay 0 steps, check no
Step Time Temp KinEng PotEng TotEng Press
0            0    1.3769038    2.0647438   -4.0774246   -2.0126808     1.084253
Averages over the last 26 of 51 rows, steps 1250 to 2500:
Temp KinEng PotEng TotEng Press
1.38544 2.07754 -4.09032 -2.01278 1.05999
Loop time of 8.82149 on 1 procs for 2500 steps with 3375 atoms

variable        diff_accum equal 0.0919711409544771+0.587223949280946/(3*25)
unfix           fixVACF
write_data      liquid.T1.4.rho0.64.data
System init for write_data ...
print           "" append log.vacf.T1.4.rho0.64.txt screen no

next            loop_counter
jump            SELF loop
clear

pair_style	lj/smooth 2.5 3.0

read_data       liquid.T1.4.rho0.64.data
Reading data file ...
  orthogonal box = (0.0000000 0.0000000 0.0000000) to (17.405958 17.405958 17.405958)
  reading atoms ...
  3375 atoms
  reading velocities ...
  3375 velocities

neighbor	0.3 bin
neigh_modify	every 20 delay 0 check no

fix		1 all nve
timestep        0.002
thermo		50

reset_timestep  0
compute         myVACF all vacf

fix             fixVACF all vector 1 c_myVACF[4]
variable        diff_integ equal dt*trap(f_fixVACF)
variable        curVACF equal c_myVACF[4]

variable        step0 equal step
variable        step0 equal $(v_step0)
variable        step0 equal 0
variable        dtime equal (step-0)*dt
thermo_style	custom step time temp ke pe etotal press

run             2500
  update every 20 steps, delay 0 steps, check no
Step Time Temp KinEng PotEng TotEng Press
0            0    1.3806846    2.0704133   -4.0834034   -2.0129901    1.1404492
Averages over the last 26 of 51 rows, steps 1250 to 2500:
Temp KinEng PotEng TotEng Press
1.38214 2.0726 -4.08542 -2.01283 1.06142
Loop time of 8.82274 on 1 procs for 2500 steps with 3375 atoms

variable        diff_accum equal 0.0998007936115564+0.698905235040393/(3*25)
unfix           fixVACF
write_data      liquid.T1.4.rho0.64.data
System init for write_data ...
print           "" append log.vacf.T1.4.rho0.64.txt screen no

next            loop_counter
jump            SELF loop
clear

pair_style	lj/smooth 2.5 3.0

read_data       liquid.T1.4.rho0.64.data
Reading data file ...
  orthogonal box = (0.0000000 0.0000000 0.0000000) to (17.405958 17.405958 17.405958)
  reading atoms ...
  3375 atoms
  reading velocities ...
  3375 velocities

neighbor	0.3 bin
neigh_modify	every 20 delay 0 check no

fix		1 all nve
timestep        0.002
thermo		50

reset_timestep  0
compute         myVACF all vacf

fix             fixVACF all vector 1 c_myVACF[4]
variable        diff_integ equal dt*trap(f_fixVACF)
variable        curVACF equal c_myVACF[4]

variable        step0 equal step
variable        step0 equal $(v_step0)
variable        step0 equal 0
variable        dtime equal (step-0)*dt
thermo_style	custom step time temp ke pe etotal press

run             2500
  update every 20 steps, delay 0 steps, check no
Step Time Temp KinEng PotEng TotEng Press
0            0    1.3865511    2.0792104   -4.0920111   -2.0128007     1.101846
Averages over the last 26 of 51 rows, steps 1250 to 2500:
Temp KinEng PotEng TotEng Press
1.38216 2.07263 -4.08558 -2.01295 1.0744
Loop time of 8.82834 on 1 procs for 2500 steps with 3375 atoms

variable        diff_accum equal 0.109119530078762+0.523289828664742/(3*25)
unfix           fixVACF
write_data      liquid.T1.4.rho0.64.data
System init for write_data ...
print           "" append log.vacf.T1.4.rho0.64.txt screen no

next            loop_counter
jump            SELF loop
clear

pair_style	lj/smooth 2.5 3.0

read_data       liquid.T1.4.rho0.64.data
Reading data file ...
  orthogonal box = (0.0000000 0.0000000 0.0000000) to (17.405958 17.405958 17.405958)
  reading atoms ...
  3375 atoms
  reading velocities ...
  3375 velocities

neighbor	0.3 bin
neigh_modify	every 20 delay 0 check no

fix		1 all nve
timestep        0.002
thermo		50

reset_timestep  0
compute         myVACF all vacf

fix             fixVACF all vector 1 c_myVACF[4]
variable        diff_integ equal dt*trap(f_fixVACF)
variable        curVACF equal c_myVACF[4]

variable        step0 equal step
variable        step0 equal $(v_step0)
variable        step0 equal 0
variable        dtime equal (step-0)*dt
thermo_style	custom step time temp ke pe etotal press

run             2500
  update every 20 steps, delay 0 steps, check no
Step Time Temp KinEng PotEng TotEng Press
0            0    1.4035265     2.104666   -4.1174602   -2.0127942   0.92670007
Averages over the last 26 of 51 rows, steps 1250 to 2500:
Temp KinEng PotEng TotEng Press
1.38494 2.0768 -4.08943 -2.01263 1.04475
Loop time of 8.84624 on 1 procs for 2500 steps with 3375 atoms

variable        diff_accum equal 0.116096727794292+0.56600623392955/(3*25)
unfix           fixVACF
write_data      liquid.T1.4.rho0.64.data
System init for write_data ...
print           "" append log.vacf.T1.4.rho0.64.txt screen no

next            loop_counter
jump            SELF loop
clear

pair_style	lj/smooth 2.5 3.0

read_data       liquid.T1.4.rho0.64.data
Reading data file ...
  orthogonal box = (0.0000000 0.0000000 0.0000000) to (17.405958 17.405958 17.405958)
  reading atoms ...
  3375 atoms
  reading velocities ...
  3375 velocities

neighbor	0.3 bin
neigh_modify	every 20 delay 0 check no

fix		1 all nve
timestep        0.002
thermo		50

reset_timestep  0
compute         myVACF all vacf

fix             fixVACF all vector 1 c_myVACF[4]
variable        diff_integ equal dt*trap(f_fixVACF)
variable        curVACF equal c_myVACF[4]

variable        step0 equal step
variable        step0 equal $(v_step0)
variable        step0 equal 0
variable        dtime equal (step-0)*dt
thermo_style	custom step time temp ke pe etotal press

run             2500
  update every 20 steps, delay 0 steps, check no
Step Time Temp KinEng PotEng TotEng Press
0            0    1.3892484    2.0832552   -4.0966037   -2.0133485    1.0268389
Averages over the last 26 of 51 rows, steps 1250 to 2500:
Temp KinEng PotEng TotEng Press
1.38482 2.07661 -4.08922 -2.01262 1.03941
Loop time of 8.8863 on 1 procs for 2500 steps with 3375 atoms

variable        diff_accum equal 0.123643477580019+0.574073231672618/(3*25)
unfix           fixVACF
write_data      liquid.T1.4.rho0.64.data
System init for write_data ...
print           "" append log.vacf.T1.4.rho0.64.txt screen no

next            loop_counter
jump            SELF loop
clear

pair_style	lj/smooth 2.5 3.0

read_data       liquid.T1.4.rho0.64.data
Reading data file ...
  orthogonal box = (0.0000000 0.0000000 0.0000000) to (17.405958 17.405958 17.405958)
  reading atoms ...
  3375 atoms
  reading velocities ...
  3375 velocities

neighbor	0.3 bin
neigh_modify	every 20 delay 0 check no

fix		1 all nve
timestep        0.002
thermo		50

reset_timestep  0
compute         myVACF all vacf

fix             fixVACF all vector 1 c_myVACF[4]
variable        diff_integ equal dt*trap(f_fixVACF)
variable        curVACF equal c_myVACF[4]

variable        step0 equal step
variable        step0 equal $(v_step0)
variable        step0 equal 0
variable        dtime equal (step-0)*dt
thermo_style	custom step time temp ke pe etotal press

run             2500
  update every 20 steps, delay 0 steps, check no
Step Time Temp KinEng PotEng TotEng Press
0            0    1.3816007    2.0717869   -4.0844395   -2.0126526    1.0769802
Averages over the last 26 of 51 rows, steps 1250 to 2500:
Temp KinEng PotEng TotEng Press
1.38172 2.07196 -4.08484 -2.01287 1.06338
Loop time of 8.82164 on 1 procs for 2500 steps with 3375 atoms

variable        diff_accum equal 0.131297787335654+0.483276749238684/(3*25)
unfix           fixVACF
write_data      liquid.T1.4.rho0.64.data
System init for write_data ...
print           "" append log.vacf.T1.4.rho0.64.txt screen no

next            loop_counter
jump            SELF loop
clear

pair_style	lj/smooth 2.5 3.0

read_data       liquid.T1.4.rho0.64.data
Reading data file ...
  orthogonal box = (0.0000000 0.0000000 0.0000000) to (17.405958 17.405958 17.405958)
  reading atoms ...
  3375 atoms
  reading velocities ...
  3375 velocities

neighbor	0.3 bin
neigh_modify	every 20 delay 0 check no

fix		1 all nve
timestep        0.002
thermo		50

reset_timestep  0
compute         myVACF all vacf

fix             fixVACF all vector 1 c_myVACF[4]
variable        diff_integ equal dt*trap(f_fixVACF)
variable        curVACF equal c_myVACF[4]

variable        step0 equal step
variable        step0 equal $(v_step0)
variable        step0 equal 0
variable        dtime equal (step-0)*dt
thermo_style	custom step time temp ke pe etotal press

run             2500
  update every 20 steps, delay 0 steps, check no
Step Time Temp KinEng PotEng TotEng Press
0            0    1.3808995    2.0707356   -4.0835868   -2.0128512    1.0723053
Averages over the last 26 of 51 rows, steps 1250 to 2500:
Temp KinEng PotEng TotEng Press
1.3879 2.08123 -4.09411 -2.01288 1.04833
Loop time of 8.84427 on 1 procs for 2500 steps with 3375 atoms

variable        diff_accum equal 0.137741477325503+0.576743723793791/(3*25)
unfix           fixVACF
write_data      liquid.T1.4.rho0.64.data
System init for write_data ...
print           "" append log.vacf.T1.4.rho0.64.txt screen no

next            loop_counter
jump            SELF loop
clear

pair_style	lj/smooth 2.5 3.0

read_data       liquid.T1.4.rho0.64.data
Reading data file ...
  orthogonal box = (0.0000000 0.0000000 0.0000000) to (17.405958 17.405958 17.405958)
  reading atoms ...
  3375 atoms
  reading velocities ...
  3375 velocities

neighbor	0.3 bin
neigh_modify	every 20 delay 0 check no

fix		1 all nve
timestep        0.002
thermo		50

reset_timestep  0
compute         myVACF all vacf

fix             fixVACF all vector 1 c_myVACF[4]
variable        diff_integ equal dt*trap(f_fixVACF)
variable        curVACF equal c_myVACF[4]

variable        step0 equal step
variable        step0 equal $(v_step0)
variable        step0 equal 0
variable        dtime equal (step-0)*dt
thermo_style	custom step time temp ke pe etotal press

run             2500
  update every 20 steps, delay 0 steps, check no
Step Time Temp KinEng PotEng TotEng Press
0            0     1.382563      2.07323   -4.0861537   -2.0129236    1.0861949
Averages over the last 26 of 51 rows, steps 1250 to 2500:
Temp KinEng PotEng TotEng Press
1.38687 2.07968 -4.09256 -2.01288 1.05508
Loop time of 8.87389 on 1 procs for 2500 steps with 3375 atoms

variable        diff_accum equal 0.145431393642754+0.491841002747772/(3*25)
unfix           fixVACF
write_data      liquid.T1.4.rho0.64.data
System init for write_data ...
print           "" append log.vacf.T1.4.rho0.64.txt screen no

next            loop_counter
jump            SELF loop
clear

pair_style	lj/smooth 2.5 3.0

read_data       liquid.T1.4.rho0.64.data
Reading data file ...
  orthogonal box = (0.0000000 0.0000000 0.0000000) to (17.405958 17.405958 17.405958)
  reading atoms ...
  3375 atoms
  reading velocities ...
  3375 velocities

neighbor	0.3 bin
neigh_modify	every 20 delay 0 check no

fix		1 all nve
timestep        0.002
thermo		50

reset_timestep  0
compute         myVACF all vacf

fix             fixVACF all vector 1 c_myVACF[4]
variable        diff_integ equal dt*trap(f_fixVACF)
variable        curVACF equal c_myVACF[4]

variable        step0 equal step
variable        step0 equal $(v_step0)
variable        step0 equal 0
variable        dtime equal (step-0)*dt
thermo_style	custom step time temp ke pe etotal press

run             2500
  update every 20 steps, delay 0 steps, check no
Step Time Temp KinEng PotEng TotEng Press
0            0    1.3993147    2.0983502   -4.1114576   -2.0131074   0.99575292
Averages over the last 26 of 51 rows, steps 1250 to 2500:
Temp KinEng PotEng TotEng Press
1.38294 2.07379 -4.08683 -2.01303 1.08528
Loop time of 8.79834 on 1 procs for 2500 steps with 3375 atoms

variable        diff_accum equal 0.151989273679391+0.581605461212554/(3*25)
unfix           fixVACF
write_data      liquid.T1.4.rho0.64.data
System init for write_data ...
print           "" append log.vacf.T1.4.rho0.64.txt screen no

next            loop_counter
jump            SELF loop
clear

pair_style	lj/smooth 2.5 3.0

read_data       liquid.T1.4.rho0.64.data
Reading data file ...
  orthogonal box = (0.0000000 0.0000000 0.0000000) to (17.405958 17.405958 17.405958)
  reading atoms ...
  3375 atoms
  reading velocities ...
  3375 velocities

neighbor	0.3 bin
neigh_modify	every 20 delay 0 check no

fix		1 all nve
timestep        0.002
thermo		50

reset_timestep  0
compute         myVACF all vacf

fix             fixVACF all vector 1 c_myVACF[4]
variable        diff_integ equal dt*trap(f_fixVACF)
variable        curVACF equal c_myVACF[4]

variable        step0 equal step
variable        step0 equal $(v_step0)
variable        step0 equal 0
variable        dtime equal (step-0)*dt
thermo_style	custom step time temp ke pe etotal press

run             2500
  update every 20 steps, delay 0 steps, check no
Step Time Temp KinEng PotEng TotEng Press
0            0    1.3902509    2.0847584   -4.0977197   -2.0129613     1.021905
Averages over the last 26 of 51 rows, steps 1250 to 2500:
Temp KinEng PotEng TotEng Press
1.38607 2.07849 -4.09123 -2.01275 1.05579
Loop time of 8.80404 on 1 procs for 2500 steps with 3375 atoms

variable        diff_accum equal 0.159744013162225+0.562594535941511/(3*25)
unfix           fixVACF
write_data      liquid.T1.4.rho0.64.data
System init for write_data ...
print           "" append log.vacf.T1.4.rho0.64.txt screen no

next            loop_counter
jump            SELF loop
clear

pair_style	lj/smooth 2.5 3.0

read_data       liquid.T1.4.rho0.64.data
Reading data file ...
  orthogonal box = (0.0000000 0.0000000 0.0000000) to (17.405958 17.405958 17.405958)
  reading atoms ...
  3375 atoms
  reading velocities ...
  3375 velocities

neighbor	0.3 bin
neigh_modify	every 20 delay 0 check no

fix		1 all nve
timestep        0.002
thermo		50

reset_timestep  0
compute         myVACF all vacf

fix             fixVACF all vector 1 c_myVACF[4]
variable        diff_integ equal dt*trap(f_fixVACF)
variable        curVACF equal c_myVACF[4]

variable        step0 equal step
variable        step0 equal $(v_step0)
variable        step0 equal 0
variable        dtime equal (step-0)*dt
thermo_style	custom step time temp ke pe etotal press

run             2500
  update every 20 steps, delay 0 steps, check no
Step Time Temp KinEng PotEng TotEng Press
0            0     1.372375    2.0579526   -4.0710952   -2.0131427    1.1321037
Averages over the last 26 of 51 rows, steps 1250 to 2500:
Temp KinEng PotEng TotEng Press
1.38651 2.07915 -4.09203 -2.01288 1.05399
Loop time of 8.78491 on 1 procs for 2500 steps with 3375 atoms

variable        diff_accum equal 0.167245273641445+0.545064021756196/(3*25)
unfix           fixVACF
write_data      liquid.T1.4.rho0.64.data
System init for write_data ...
print           "" append log.vacf.T1.4.rho0.64.txt screen no

next            loop_counter
jump            SELF loop
clear

pair_style	lj/smooth 2.5 3.0

read_data       liquid.T1.4.rho0.64.data
Reading data file ...
  orthogonal box = (0.0000000 0.0000000 0.0000000) to (17.405958 17.405958 17.405958)
  reading atoms ...
  3375 atoms
  reading velocities ...
  3375 velocities

neighbor	0.3 bin
neigh_modify	every 20 delay 0 check no

fix		1 all nve
timestep        0.002
thermo		50

reset_timestep  0
compute         myVACF all vacf

fix             fixVACF all vector 1 c_myVACF[4]
variable        diff_integ equal dt*trap(f_fixVACF)
variable        curVACF equal c_myVACF[4]

variable        step0 equal step
variable        step0 equal $(v_step0)
variable        step0 equal 0
variable        dtime equal (step-0)*dt
thermo_style	custom step time temp ke pe etotal press

run             2500
  update every 20 steps, delay 0 steps, check no
Step Time Temp KinEng PotEng TotEng Press
0            0    1.3912999    2.0863315   -4.0987899   -2.0124584   0.99008497
Averages over the last 26 of 51 rows, steps 1250 to 2500:
Temp KinEng PotEng TotEng Press
1.38332 2.07437 -4.08723 -2.01286 1.0588
Loop time of 8.78724 on 1 procs for 2500 steps with 3375 atoms

variable        diff_accum equal 0.174512793931528+0.636437272072899/(3*25)
unfix           fixVACF
write_data      liquid.T1.4.rho0.64.data
System init for write_data ...
print           "" append log.vacf.T1.4.rho0.64.txt screen no

next            loop_counter
jump            SELF loop
clear

pair_style	lj/smooth 2.5 3.0

read_data       liquid.T1.4.rho0.64.data
Reading data file ...
  orthogonal box = (0.0000000 0.0000000 0.0000000) to (17.405958 17.405958 17.405958)
  reading atoms ...
  3375 atoms
  reading velocities ...
  3375 velocities

neighbor	0.3 bin
neigh_modify	every 20 delay 0 check no

fix		1 all nve
timestep        0.002
thermo		50

reset_timestep  0
compute         myVACF all vacf

fix             fixVACF all vector 1 c_myVACF[4]
variable        diff_integ equal dt*trap(f_fixVACF)
variable        curVACF equal c_myVACF[4]

variable        step0 equal step
variable        step0 equal $(v_step0)
variable        step0 equal 0
variable        dtime equal (step-0)*dt
thermo_style	custom step time temp ke pe etotal press

run             2500
  update every 20 steps, delay 0 steps, check no
Step Time Temp KinEng PotEng TotEng Press
0            0     1.403614    2.1047972   -4.1172614   -2.0124642   0.92672289
Averages over the last 26 of 51 rows, steps 1250 to 2500:
Temp KinEng PotEng TotEng Press
1.38258 2.07325 -4.08598 -2.01274 1.07129
Loop time of 8.78061 on 1 procs for 2500 steps with 3375 atoms

variable        diff_accum equal 0.182998624225833+0.626380470623045/(3*25)
unfix           fixVACF
write_data      liquid.T1.4.rho0.64.data
System init for write_data ...
print           "" append log.vacf.T1.4.rho0.64.txt screen no

next            loop_counter
jump            SELF loop

Diffusivity estimate (GK): 0.19135036383414
