shell           rm log.vacf.T1.5.rho0.64.txt
units		lj
atom_style	atomic

variable        loop_counter loop 25
variable        diff_accum equal 0

label           loop
clear

pair_style	lj/smooth 2.5 3.0

read_data       liquid.T1.5.rho0.64.data
Reading data file ...
  orthogonal box = (0.0000000 0.0000000 0.0000000) to (17.405958 17.405958 17.405958)
  reading atoms ...
  3375 atoms
  reading velocities ...
  3375 velocities

neighbor	0.3 bin
neigh_modify	every 20 delay 0 check no

fix		1 all nve
timestep        0.002
thermo		50

reset_timestep  0
compute         myVACF all vacf

fix             fixVACF all vector 1 c_myVACF[4]
variable        diff_integ equal dt*trap(f_fixVACF)
variable        curVACF equal c_myVACF[4]

variable        step0 equal step
variable        step0 equal $(v_step0)
variable        step0 equal 0
variable        dtime equal (step-0)*dt
thermo_style	custom step time temp ke pe etotal press

run             2500
  update every 20 steps, delay 0 steps, check no
Step Time Temp KinEng PotEng TotEng Press
0            0     1.510506    2.2650877   -4.0387494   -1.7736617    1.3295481
Averages over the last 26 of 51 rows, steps 1250 to 2500:
Temp KinEng PotEng TotEng Press
1.50595 2.25825 -4.03203 -1.77378 1.32927
Loop time of 8.89567 on 1 procs for 2500 steps with 3375 atoms

variable        diff_accum equal 0+0.594421665709698/(3*25)
unfix           fixVACF
write_data      liquid.T1.5.rho0.64.data
System init for write_data ...
print           "" append log.vacf.T1.5.rho0.64.txt screen no

next            loop_counter
jump            SELF loop
clear

pair_style	lj/smooth 2.5 3.0

read_data       liquid.T1.5.rho0.64.data
Reading data file ...
  orthogonal box = (0.0000000 0.0000000 0.0000000) to (17.405958 17.405958 17.405958)
  reading atoms ...
  3375 atoms
  reading velocities ...
  3375 velocities

neighbor	0.3 bin
neigh_modify	every 20 delay 0 check no

fix		1 all nve
timestep        0.002
thermo		50

reset_timestep  0
compute         myVACF all vacf

fix             fixVACF all vector 1 c_myVACF[4]
variable        diff_integ equal dt*trap(f_fixVACF)
variable        curVACF equal c_myVACF[4]

variable        step0 equal step
variable        step0 equal $(v_step0)
variable        step0 equal 0
variable        dtime equal (step-0)*dt
thermo_style	custom step time temp ke pe etotal press

run             2500
  update every 20 steps, delay 0 steps, check no
Step Time Temp KinEng PotEng TotEng Press
0            0    1.5108231    2.2655631   -4.0395622   -1.7739991    1.2804965
Averages over the last 26 of 51 rows, steps 1250 to 2500:
Temp KinEng PotEng TotEng Press
1.50362 2.25476 -4.02855 -1.77379 1.34934
Loop time of 9.12322 on 1 procs for 2500 steps with 3375 atoms

variable        diff_accum equal 0.00792562220946264+0.659394548830693/(3*25)
unfix           fixVACF
write_data      liquid.T1.5.rho0.64.data
System init for write_data ...
print           "" append log.vacf.T1.5.rho0.64.txt screen no

next            loop_counter
jump            SELF loop
clear

pair_style	lj/smooth 2.5 3.0

read_data       liquid.T1.5.rho0.64.data
Reading data file ...
  orthogonal box = (0.0000000 0.0000000 0.0000000) to (17.405958 17.405958 17.405958)
  reading atoms ...
  3375 atoms
  reading velocities ...
  3375 velocities

neighbor	0.3 bin
neigh_modify	every 20 delay 0 check no

fix		1 all nve
timestep        0.002
thermo		50

reset_timestep  0
compute         myVACF all vacf

fix             fixVACF all vector 1 c_myVACF[4]
variable        diff_integ equal dt*trap(f_fixVACF)
variable        curVACF equal c_myVACF[4]

variable        step0 equal step
variable        step0 equal $(v_step0)
variable        step0 equal 0
variable        dtime equal (step-0)*dt
thermo_style	custom step time temp ke pe etotal press

run             2500
  update every 20 steps, delay 0 steps, check no
Step Time Temp KinEng PotEng TotEng Press
0            0    1.5091731    2.2630889   -4.0372424   -1.7741535    1.3439875
Averages over the last 26 of 51 rows, steps 1250 to 2500:
Temp KinEng PotEng TotEng Press
1.5061 2.25848 -4.03209 -1.77361 1.32312
Loop time of 8.8969 on 1 procs for 2500 steps with 3375 atoms

variable        diff_accum equal 0.0167175495272052+0.689574392315491/(3*25)
unfix           fixVACF
write_data      liquid.T1.5.rho0.64.data
System init for write_data ...
print           "" append log.vacf.T1.5.rho0.64.txt screen no

next            loop_counter
jump            SELF loop
clear

pair_style	lj/smooth 2.5 3.0

read_data       liquid.T1.5.rho0.64.data
Reading data file ...
  orthogonal box = (0.0000000 0.0000000 0.0000000) to (17.405958 17.405958 17.405958)
  reading atoms ...
  3375 atoms
  reading velocities ...
  3375 velocities

neighbor	0.3 bin
neigh_modify	every 20 delay 0 check no

fix		1 all nve
timestep        0.002
thermo		50

reset_timestep  0
compute         myVACF all vacf

fix             fixVACF all vector 1 c_myVACF[4]
variable        diff_integ equal dt*trap(f_fixVACF)
variable        curVACF equal c_myVACF[4]

variable        step0 equal step
variable        step0 equal $(v_step0)
variable        step0 equal 0
variable        dtime equal (step-0)*dt
thermo_style	custom step time temp ke pe etotal press

run             2500
  update every 20 steps, delay 0 steps, check no
Step Time Temp KinEng PotEng TotEng Press
0            0    1.5025982    2.2532295    -4.026721   -1.7734916    1.3197911
Averages over the last 26 of 51 rows, steps 1250 to 2500:
Temp KinEng PotEng TotEng Press
1.50701 2.25985 -4.03382 -1.77397 1.35085
Loop time of 8.86823 on 1 procs for 2500 steps with 3375 atoms

variable        diff_accum equal 0.0259118747580784+0.6845741002092/(3*25)
unfix           fixVACF
write_data      liquid.T1.5.rho0.64.data
System init for write_data ...
print           "" append log.vacf.T1.5.rho0.64.txt screen no

next            loop_counter
jump            SELF loop
clear

pair_style	lj/smooth 2.5 3.0

read_data       liquid.T1.5.rho0.64.data
Reading data file ...
  orthogonal box = (0.0000000 0.0000000 0.0000000) to (17.405958 17.405958 17.405958)
  reading atoms ...
  3375 atoms
  reading velocities ...
  3375 velocities

neighbor	0.3 bin
neigh_modify	every 20 delay 0 check no

fix		1 all nve
timestep        0.002
thermo		50

reset_timestep  0
compute         myVACF all vacf

fix             fixVACF all vector 1 c_myVACF[4]
variable        diff_integ equal dt*trap(f_fixVACF)
variable        curVACF equal c_myVACF[4]

variable        step0 equal step
variable        step0 equal $(v_step0)
variable        step0 equal 0
variable        dtime equal (step-0)*dt
thermo_style	custom step time temp ke pe etotal press

run             2500
  update every 20 steps, delay 0 steps, check no
Step Time Temp KinEng PotEng TotEng Press
0            0    1.4909977    2.2358338   -4.0099654   -1.7741315    1.4224732
Averages over the last 26 of 51 rows, steps 1250 to 2500:
Temp KinEng PotEng TotEng Press
1.50114 2.25105 -4.02481 -1.77376 1.36595
Loop time of 8.91684 on 1 procs for 2500 steps with 3375 atoms

variable        diff_accum equal 0.0350395294275344+0.597304764598908/(3*25)
unfix           fixVACF
write_data      liquid.T1.5.rho0.64.data
System init for write_data ...
print           "" append log.vacf.T1.5.rho0.64.txt screen no

next            loop_counter
jump            SELF loop
clear

pair_style	lj/smooth 2.5 3.0

read_data       liquid.T1.5.rho0.64.data
Reading data file ...
  orthogonal box = (0.0000000 0.0000000 0.0000000) to (17.405958 17.405958 17.405958)
  reading atoms ...
  3375 atoms
  reading velocities ...
  3375 velocities

neighbor	0.3 bin
neigh_modify	every 20 delay 0 check no

fix		1 all nve
timestep        0.002
thermo		50

reset_timestep  0
compute         myVACF all vacf

fix             fixVACF all vector 1 c_myVACF[4]
variable        diff_integ equal dt*trap(f_fixVACF)
variable        curVACF equal c_myVACF[4]

variable        step0 equal step
variable        step0 equal $(v_step0)
variable        step0 equal 0
variable        dtime equal (step-0)*dt
thermo_style	custom step time temp ke pe etotal press

run             2500
  update every 20 steps, delay 0 steps, check no
Step Time Temp KinEng PotEng TotEng Press
0            0    1.4928135    2.2385567   -4.0120142   -1.7734575    1.4095319
Averages over the last 26 of 51 rows, steps 1250 to 2500:
Temp KinEng PotEng TotEng Press
1.50368 2.25486 -4.02866 -1.7738 1.35777
Loop time of 8.88228 on 1 procs for 2500 steps with 3375 atoms

variable        diff_accum equal 0.0430035929555198+0.622372605210632/(3*25)
unfix           fixVACF
write_data      liquid.T1.5.rho0.64.data
System init for write_data ...
print           "" append log.vacf.T1.5.rho0.64.txt screen no

next            loop_counter
jump            SELF loop
clear

pair_style	lj/smooth 2.5 3.0

read_data       liquid.T1.5.rho0.64.data
Reading data file ...
  orthogonal box = (0.0000000 0.0000000 0.0000000) to (17.405958 17.405958 17.405958)
  reading atoms ...
  3375 atoms
  reading velocities ...
  3375 velocities

neighbor	0.3 bin
neigh_modify	every 20 delay 0 check no

fix		1 all nve
timestep        0.002
thermo		50

reset_timestep  0
compute         myVACF all vacf

fix             fixVACF all vector 1 c_myVACF[4]
variable        diff_integ equal dt*trap(f_fixVACF)
variable        curVACF equal c_myVACF[4]

variable        step0 equal step
variable        step0 equal $(v_step0)
variable        step0 equal 0
variable        dtime equal (step-0)*dt
thermo_style	custom step time temp ke pe etotal press

run             2500
  update every 20 steps, delay 0 steps, check no
Step Time Temp KinEng PotEng TotEng Press
0            0    1.5128344    2.2685792   -4.0424003   -1.7738212    1.3777214
Averages over the last 26 of 51 rows, steps 1250 to 2500:
Temp KinEng PotEng TotEng Press
1.50525 2.2572 -4.03088 -1.77368 1.34119
Loop time of 8.88288 on 1 procs for 2500 steps with 3375 atoms

variable        diff_accum equal 0.0513018943583282+0.667576624778229/(3*25)
unfix           fixVACF
write_data      liquid.T1.5.rho0.64.data
System init for write_data ...
print           "" append log.vacf.T1.5.rho0.64.txt screen no

next            loop_counter
jump            SELF loop
clear

pair_style	lj/smooth 2.5 3.0

read_data       liquid.T1.5.rho0.64.data
Reading data file ...
  orthogonal box = (0.0000000 0.0000000 0.0000000) to (17.405958 17.405958 17.405958)
  reading atoms ...
  3375 atoms
  reading velocities ...
  3375 velocities

neighbor	0.3 bin
neigh_modify	every 20 delay 0 check no

fix		1 all nve
timestep        0.002
thermo		50

reset_timestep  0
compute         myVACF all vacf

fix             fixVACF all vector 1 c_myVACF[4]
variable        diff_integ equal dt*trap(f_fixVACF)
variable        curVACF equal c_myVACF[4]

variable        step0 equal step
variable        step0 equal $(v_step0)
variable        step0 equal 0
variable        dtime equal (step-0)*dt
thermo_style	custom step time temp ke pe etotal press

run             2500
  update every 20 steps, delay 0 steps, check no
Step Time Temp KinEng PotEng TotEng Press
0            0    1.5067119    2.2593982   -4.0330107   -1.7736125    1.3568128
Averages over the last 26 of 51 rows, steps 1250 to 2500:
Temp KinEng PotEng TotEng Press
1.50739 2.26042 -4.03406 -1.77364 1.33366
Loop time of 8.88363 on 1 procs for 2500 steps with 3375 atoms

variable        diff_accum equal 0.0602029160220379+0.71261869185999/(3*25)
unfix           fixVACF
write_data      liquid.T1.5.rho0.64.data
System init for write_data ...
print           "" append log.vacf.T1.5.rho0.64.txt screen no

next            loop_counter
jump            SELF loop
clear

pair_style	lj/smooth 2.5 3.0

read_data       liquid.T1.5.rho0.64.data
Reading data file ...
  orthogonal box = (0.0000000 0.0000000 0.0000000) to (17.405958 17.405958 17.405958)
  reading atoms ...
  3375 atoms
  reading velocities ...
  3375 velocities

neighbor	0.3 bin
neigh_modify	every 20 delay 0 check no

fix		1 all nve
timestep        0.002
thermo		50

reset_timestep  0
compute         myVACF all vacf

fix             fixVACF all vector 1 c_myVACF[4]
variable        diff_integ equal dt*trap(f_fixVACF)
variable        curVACF equal c_myVACF[4]

variable        step0 equal step
variable        step0 equal $(v_step0)
variable        step0 equal 0
variable        dtime equal (step-0)*dt
thermo_style	custom step time temp ke pe etotal press

run             2500
  update every 20 steps, delay 0 steps, check no
Step Time Temp KinEng PotEng TotEng Press
0            0    1.4964322    2.2439832   -4.0175633   -1.7735801    1.3571041
Averages over the last 26 of 51 rows, steps 1250 to 2500:
Temp KinEng PotEng TotEng Press
1.50284 2.2536 -4.02729 -1.77369 1.35585
Loop time of 8.886 on 1 procs for 2500 steps with 3375 atoms

variable        diff_accum equal 0.0697044985801711+0.537363467427727/(3*25)
unfix           fixVACF
write_data      liquid.T1.5.rho0.64.data
System init for write_data ...
print           "" append log.vacf.T1.5.rho0.64.txt screen no

next            loop_counter
jump            SELF loop
clear

pair_style	lj/smooth 2.5 3.0

read_data       liquid.T1.5.rho0.64.data
Reading data file ...
  orthogonal box = (0.0000000 0.0000000 0.0000000) to (17.405958 17.405958 17.405958)
  reading atoms ...
  3375 atoms
  reading velocities ...
  3375 velocities

neighbor	0.3 bin
neigh_modify	every 20 delay 0 check no

fix		1 all nve
timestep        0.002
thermo		50

reset_timestep  0
compute         myVACF all vacf

fix             fixVACF all vector 1 c_myVACF[4]
variable        diff_integ equal dt*trap(f_fixVACF)
variable        curVACF equal c_myVACF[4]

variable        step0 equal step
variable        step0 equal $(v_step0)
variable        step0 equal 0
variable        dtime equal (step-0)*dt
thermo_style	custom step time temp ke pe etotal press

run             2500
  update every 20 steps, delay 0 steps, check no
Step Time Temp KinEng PotEng TotEng Press
0            0    1.4874177    2.2304655   -4.0038229   -1.7733574    1.3317105
Averages over the last 26 of 51 rows, steps 1250 to 2500:
Temp KinEng PotEng TotEng Press
1.50667 2.25934 -4.03281 -1.77347 1.32412
Loop time of 8.88835 on 1 procs for 2500 steps with 3375 atoms

variable        diff_accum equal 0.0768693448125408+0.575176586276723/(3*25)
unfix           fixVACF
write_data      liquid.T1.5.rho0.64.data
System init for write_data ...
print           "" append log.vacf.T1.5.rho0.64.txt screen no

next            loop_counter
jump            SELF loop
clear

pair_style	lj/smooth 2.5 3.0

read_data       liquid.T1.5.rho0.64.data
Reading data file ...
  orthogonal box = (0.0000000 0.0000000 0.0000000) to (17.405958 17.405958 17.405958)
  reading atoms ...
  3375 atoms
  reading velocities ...
  3375 velocities

neighbor	0.3 bin
neigh_modify	every 20 delay 0 check no

fix		1 all nve
timestep        0.002
thermo		50

reset_timestep  0
compute         myVACF all vacf

fix             fixVACF all vector 1 c_myVACF[4]
variable        diff_integ equal dt*trap(f_fixVACF)
variable        curVACF equal c_myVACF[4]

variable        step0 equal step
variable        step0 equal $(v_step0)
variable        step0 equal 0
variable        dtime equal (step-0)*dt
thermo_style	custom step time temp ke pe etotal press

run             2500
  update every 20 steps, delay 0 steps, check no
Step Time Temp KinEng PotEng TotEng Press
0            0    1.5060923    2.2584691   -4.0323168   -1.7738477    1.3523391
Averages over the last 26 of 51 rows, steps 1250 to 2500:
Temp KinEng PotEng TotEng Press
1.50199 2.25231 -4.02612 -1.7738 1.35852
Loop time of 8.90681 on 1 procs for 2500 steps with 3375 atoms

variable        diff_accum equal 0.0845383659628971+0.658492266722981/(3*25)
unfix           fixVACF
write_data      liquid.T1.5.rho0.64.data
System init for write_data ...
print           "" append log.vacf.T1.5.rho0.64.txt screen no

next            loop_counter
jump            SELF loop
clear

pair_style	lj/smooth 2.5 3.0

read_data       liquid.T1.5.rho0.64.data
Reading data file ...
  orthogonal box = (0.0000000 0.0000000 0.0000000) to (17.405958 17.405958 17.405958)
  reading atoms ...
  3375 atoms
  reading velocities ...
  3375 velocities

neighbor	0.3 bin
neigh_modify	every 20 delay 0 check no

fix		1 all nve
timestep        0.002
thermo		50

reset_timestep  0
compute         myVACF all vacf

fix             fixVACF all vector 1 c_myVACF[4]
variable        diff_integ equal dt*trap(f_fixVACF)
variable        curVACF equal c_myVACF[4]

variable        step0 equal step
variable        step0 equal $(v_step0)
variable        step0 equal 0
variable        dtime equal (step-0)*dt
thermo_style	custom step time temp ke pe etotal press

run             2500
  update every 20 steps, delay 0 steps, check no
Step Time Temp KinEng PotEng TotEng Press
0            0    1.4991341    2.2480349   -4.0212538    -1.773219    1.3955408
Averages over the last 26 of 51 rows, steps 1250 to 2500:
Temp KinEng PotEng TotEng Press
1.50514 2.25703 -4.0307 -1.77367 1.34864
Loop time of 8.90937 on 1 procs for 2500 steps with 3375 atoms

variable        diff_accum equal 0.0933182628525368+0.687471638345025/(3*25)
unfix           fixVACF
write_data      liquid.T1.5.rho0.64.data
System init for write_data ...
print           "" append log.vacf.T1.5.rho0.64.txt screen no

next            loop_counter
jump            SELF loop
clear

pair_style	lj/smooth 2.5 3.0

read_data       liquid.T1.5.rho0.64.data
Reading data file ...
  orthogonal box = (0.0000000 0.0000000 0.0000000) to (17.405958 17.405958 17.405958)
  reading atoms ...
  3375 atoms
  reading velocities ...
  3375 velocities

neighbor	0.3 bin
neigh_modify	every 20 delay 0 check no

fix		1 all nve
timestep        0.002
thermo		50

reset_timestep  0
compute         myVACF all vacf

fix             fixVACF all vector 1 c_myVACF[4]
variable        diff_integ equal dt*trap(f_fixVACF)
variable        curVACF equal c_myVACF[4]

variable        step0 equal step
variable        step0 equal $(v_step0)
variable        step0 equal 0
variable        dtime equal (step-0)*dt
thermo_style	custom step time temp ke pe etotal press

run             2500
  update every 20 steps, delay 0 steps, check no
Step Time Temp KinEng PotEng TotEng Press
0            0    1.5011988    2.2511311   -4.0247762   -1.7736451    1.3667318
Averages over the last 26 of 51 rows, steps 1250 to 2500:
Temp KinEng PotEng TotEng Press
1.50138 2.2514 -4.02508 -1.77368 1.33277
Loop time of 8.87693 on 1 procs for 2500 steps with 3375 atoms

variable        diff_accum equal 0.102484551363804+0.579388020834677/(3*25)
unfix           fixVACF
write_data      liquid.T1.5.rho0.64.data
System init for write_data ...
print           "" append log.vacf.T1.5.rho0.64.txt screen no

next            loop_counter
jump            SELF loop
clear

pair_style	lj/smooth 2.5 3.0

read_data       liquid.T1.5.rho0.64.data
Reading data file ...
  orthogonal box = (0.0000000 0.0000000 0.0000000) to (17.405958 17.405958 17.405958)
  reading atoms ...
  3375 atoms
  reading velocities ...
  3375 velocities

neighbor	0.3 bin
neigh_modify	every 20 delay 0 check no

fix		1 all nve
timestep        0.002
thermo		50

reset_timestep  0
compute         myVACF all vacf

fix             fixVACF all vector 1 c_myVACF[4]
variable        diff_integ equal dt*trap(f_fixVACF)
variable        curVACF equal c_myVACF[4]

variable        step0 equal step
variable        step0 equal $(v_step0)
variable        step0 equal 0
variable        dtime equal (step-0)*dt
thermo_style	custom step time temp ke pe etotal press

run             2500
  update every 20 steps, delay 0 steps, check no
Step Time Temp KinEng PotEng TotEng Press
0            0    1.5128074    2.2685387   -4.0420588   -1.7735201    1.2955828
Averages over the last 26 of 51 rows, steps 1250 to 2500:
Temp KinEng PotEng TotEng Press
1.50637 2.25889 -4.03248 -1.77359 1.3336
Loop time of 8.85845 on 1 procs for 2500 steps with 3375 atoms

variable        diff_accum equal 0.110209724974933+0.666655662098791/(3*25)
unfix           fixVACF
write_data      liquid.T1.5.rho0.64.data
System init for write_data ...
print           "" append log.vacf.T1.5.rho0.64.txt screen no

next            loop_counter
jump            SELF loop
clear

pair_style	lj/smooth 2.5 3.0

read_data       liquid.T1.5.rho0.64.data
Reading data file ...
  orthogonal box = (0.0000000 0.0000000 0.0000000) to (17.405958 17.405958 17.405958)
  reading atoms ...
  3375 atoms
  reading velocities ...
  3375 velocities

neighbor	0.3 bin
neigh_modify	every 20 delay 0 check no

fix		1 all nve
timestep        0.002
thermo		50

reset_timestep  0
compute         myVACF all vacf

fix             fixVACF all vector 1 c_myVACF[4]
variable        diff_integ equal dt*trap(f_fixVACF)
variable        curVACF equal c_myVACF[4]

variable        step0 equal step
variable        step0 equal $(v_step0)
variable        step0 equal 0
variable        dtime equal (step-0)*dt
thermo_style	custom step time temp ke pe etotal press

run             2500
  update every 20 steps, delay 0 steps, check no
Step Time Temp KinEng PotEng TotEng Press
0            0    1.5067855    2.2595085   -4.0333756   -1.7738671    1.3913782
Averages over the last 26 of 51 rows, steps 1250 to 2500:
Temp KinEng PotEng TotEng Press
1.50804 2.26139 -4.03506 -1.77367 1.34466
Loop time of 8.8854 on 1 procs for 2500 steps with 3375 atoms

variable        diff_accum equal 0.11909846713625+0.621883343236851/(3*25)
unfix           fixVACF
write_data      liquid.T1.5.rho0.64.data
System init for write_data ...
print           "" append log.vacf.T1.5.rho0.64.txt screen no

next            loop_counter
jump            SELF loop
clear

pair_style	lj/smooth 2.5 3.0

read_data       liquid.T1.5.rho0.64.data
Reading data file ...
  orthogonal box = (0.0000000 0.0000000 0.0000000) to (17.405958 17.405958 17.405958)
  reading atoms ...
  3375 atoms
  reading velocities ...
  3375 velocities

neighbor	0.3 bin
neigh_modify	every 20 delay 0 check no

fix		1 all nve
timestep        0.002
thermo		50

reset_timestep  0
compute         myVACF all vacf

fix             fixVACF all vector 1 c_myVACF[4]
variable        diff_integ equal dt*trap(f_fixVACF)
variable        curVACF equal c_myVACF[4]

variable        step0 equal step
variable        step0 equal $(v_step0)
variable        step0 equal 0
variable        dtime equal (step-0)*dt
thermo_style	custom step time temp ke pe etotal press

run             2500
  update every 20 steps, delay 0 steps, check no
Step Time Temp KinEng PotEng TotEng Press
0            0    1.4874479    2.2305107   -4.0037866   -1.7732759    1.4387899
Averages over the last 26 of 51 rows, steps 1250 to 2500:
Temp KinEng PotEng TotEng Press
1.50618 2.2586 -4.03233 -1.77373 1.34419
Loop time of 8.9138 on 1 procs for 2500 steps with 3375 atoms

variable        diff_accum equal 0.127390245046075+0.521103328052644/(3*25)
unfix           fixVACF
write_data      liquid.T1.5.rho0.64.data
System init for write_data ...
print           "" append log.vacf.T1.5.rho0.64.txt screen no

next            loop_counter
jump            SELF loop
clear

pair_style	lj/smooth 2.5 3.0

read_data       liquid.T1.5.rho0.64.data
Reading data file ...
  orthogonal box = (0.0000000 0.0000000 0.0000000) to (17.405958 17.405958 17.405958)
  reading atoms ...
  3375 atoms
  reading velocities ...
  3375 velocities

neighbor	0.3 bin
neigh_modify	every 20 delay 0 check no

fix		1 all nve
timestep        0.002
thermo		50

reset_timestep  0
compute         myVACF all vacf

fix             fixVACF all vector 1 c_myVACF[4]
variable        diff_integ equal dt*trap(f_fixVACF)
variable        curVACF equal c_myVACF[4]

variable        step0 equal step
variable        step0 equal $(v_step0)
variable        step0 equal 0
variable        dtime equal (step-0)*dt
thermo_style	custom step time temp ke pe etotal press

run             2500
  update every 20 steps, delay 0 steps, check no
Step Time Temp KinEng PotEng TotEng Press
0            0    1.5057066    2.2578907   -4.0315442   -1.7736535    1.3545091
Averages over the last 26 of 51 rows, steps 1250 to 2500:
Temp KinEng PotEng TotEng Press
1.50607 2.25843 -4.03211 -1.77367 1.35314
Loop time of 8.87505 on 1 procs for 2500 steps with 3375 atoms

variable        diff_accum equal 0.13433828942011+0.691860292008031/(3*25)
unfix           fixVACF
write_data      liquid.T1.5.rho0.64.data
System init for write_data ...
print           "" append log.vacf.T1.5.rho0.64.txt screen no

next            loop_counter
jump            SELF loop
clear

pair_style	lj/smooth 2.5 3.0

read_data       liquid.T1.5.rho0.64.data
Reading data file ...
  orthogonal box = (0.0000000 0.0000000 0.0000000) to (17.405958 17.405958 17.405958)
  reading atoms ...
  3375 atoms
  reading velocities ...
  3375 velocities

neighbor	0.3 bin
neigh_modify	every 20 delay 0 check no

fix		1 all nve
timestep        0.002
thermo		50

reset_timestep  0
compute         myVACF all vacf

fix             fixVACF all vector 1 c_myVACF[4]
variable        diff_integ equal dt*trap(f_fixVACF)
variable        curVACF equal c_myVACF[4]

variable        step0 equal step
variable        step0 equal $(v_step0)
variable        step0 equal 0
variable        dtime equal (step-0)*dt
thermo_style	custom step time temp ke pe etotal press

run             2500
  update every 20 steps, delay 0 steps, check no
Step Time Temp KinEng PotEng TotEng Press
0            0    1.5045689    2.2561847   -4.0303426   -1.7741579     1.396412
Averages over the last 26 of 51 rows, steps 1250 to 2500:
Temp KinEng PotEng TotEng Press
1.50164 2.2518 -4.02546 -1.77367 1.37744
Loop time of 8.85552 on 1 procs for 2500 steps with 3375 atoms

variable        diff_accum equal 0.14356309331355+0.608794608714166/(3*25)
unfix           fixVACF
write_data      liquid.T1.5.rho0.64.data
System init for write_data ...
print           "" append log.vacf.T1.5.rho0.64.txt screen no

next            loop_counter
jump            SELF loop
clear

pair_style	lj/smooth 2.5 3.0

read_data       liquid.T1.5.rho0.64.data
Reading data file ...
  orthogonal box = (0.0000000 0.0000000 0.0000000) to (17.405958 17.405958 17.405958)
  reading atoms ...
  3375 atoms
  reading velocities ...
  3375 velocities

neighbor	0.3 bin
neigh_modify	every 20 delay 0 check no

fix		1 all nve
timestep        0.002
thermo		50

reset_timestep  0
compute         myVACF all vacf

fix             fixVACF all vector 1 c_myVACF[4]
variable        diff_integ equal dt*trap(f_fixVACF)
variable        curVACF equal c_myVACF[4]

variable        step0 equal step
variable        step0 equal $(v_step0)
variable        step0 equal 0
variable        dtime equal (step-0)*dt
thermo_style	custom step time temp ke pe etotal press

run             2500
  update every 20 steps, delay 0 steps, check no
Step Time Temp KinEng PotEng TotEng Press
0            0    1.4764387    2.2140018   -3.9874466   -1.7734448    1.4475804
Averages over the last 26 of 51 rows, steps 1250 to 2500:
Temp KinEng PotEng TotEng Press
1.50588 2.25816 -4.03201 -1.77385 1.3719
Loop time of 8.83562 on 1 procs for 2500 steps with 3375 atoms

variable        diff_accum equal 0.151680354763072+0.638340012926965/(3*25)
unfix           fixVACF
write_data      liquid.T1.5.rho0.64.data
System init for write_data ...
print           "" append log.vacf.T1.5.rho0.64.txt screen no

next            loop_counter
jump            SELF loop
clear

pair_style	lj/smooth 2.5 3.0

read_data       liquid.T1.5.rho0.64.data
Reading data file ...
  orthogonal box = (0.0000000 0.0000000 0.0000000) to (17.405958 17.405958 17.405958)
  reading atoms ...
  3375 atoms
  reading velocities ...
  3375 velocities

neighbor	0.3 bin
neigh_modify	every 20 delay 0 check no

fix		1 all nve
timestep        0.002
thermo		50

reset_timestep  0
compute         myVACF all vacf

fix             fixVACF all vector 1 c_myVACF[4]
variable        diff_integ equal dt*trap(f_fixVACF)
variable        curVACF equal c_myVACF[4]

variable        step0 equal step
variable        step0 equal $(v_step0)
variable        step0 equal 0
variable        dtime equal (step-0)*dt
thermo_style	custom step time temp ke pe etotal press

run             2500
  update every 20 steps, delay 0 steps, check no
Step Time Temp KinEng PotEng TotEng Press
0            0    1.4877358    2.2309424    -4.004606   -1.7736635     1.419552
Averages over the last 26 of 51 rows, steps 1250 to 2500:
Temp KinEng PotEng TotEng Press
1.5009 2.25068 -4.02436 -1.77368 1.35228
Loop time of 8.81172 on 1 procs for 2500 steps with 3375 atoms

variable        diff_accum equal 0.160191554935432+0.619110324326191/(3*25)
unfix           fixVACF
write_data      liquid.T1.5.rho0.64.data
System init for write_data ...
print           "" append log.vacf.T1.5.rho0.64.txt screen no

next            loop_counter
jump            SELF loop
clear

pair_style	lj/smooth 2.5 3.0

read_data       liquid.T1.5.rho0.64.data
Reading data file ...
  orthogonal box = (0.0000000 0.0000000 0.0000000) to (17.405958 17.405958 17.405958)
  reading atoms ...
  3375 atoms
  reading velocities ...
  3375 velocities

neighbor	0.3 bin
neigh_modify	every 20 delay 0 check no

fix		1 all nve
timestep        0.002
thermo		50

reset_timestep  0
compute         myVACF all vacf

fix             fixVACF all vector 1 c_myVACF[4]
variable        diff_integ equal dt*trap(f_fixVACF)
variable        curVACF equal c_myVACF[4]

variable        step0 equal step
variable        step0 equal $(v_step0)
variable        step0 equal 0
variable        dtime equal (step-0)*dt
thermo_style	custom step time temp ke pe etotal press

run             2500
  update every 20 steps, delay 0 steps, check no
Step Time Temp KinEng PotEng TotEng Press
0            0    1.4985822    2.2472072   -4.0208233   -1.7736161    1.3675204
Averages over the last 26 of 51 rows, steps 1250 to 2500:
Temp KinEng PotEng TotEng Press
1.5032 2.25413 -4.02781 -1.77368 1.35792
Loop time of 8.8192 on 1 procs for 2500 steps with 3375 atoms

variable        diff_accum equal 0.168446359259781+0.688326069445029/(3*25)
unfix           fixVACF
write_data      liquid.T1.5.rho0.64.data
System init for write_data ...
print           "" append log.vacf.T1.5.rho0.64.txt screen no

next            loop_counter
jump            SELF loop
clear

pair_style	lj/smooth 2.5 3.0

read_data       liquid.T1.5.rho0.64.data
Reading data file ...
  orthogonal box = (0.0000000 0.0000000 0.0000000) to (17.405958 17.405958 17.405958)
  reading atoms ...
  3375 atoms
  reading velocities ...
  3375 velocities

neighbor	0.3 bin
neigh_modify	every 20 delay 0 check no

fix		1 all nve
timestep        0.002
thermo		50

reset_timestep  0
compute         myVACF all vacf

fix             fixVACF all vector 1 c_myVACF[4]
variable        diff_integ equal dt*trap(f_fixVACF)
variable        curVACF equal c_myVACF[4]

variable        step0 equal step
variable        step0 equal $(v_step0)
variable        step0 equal 0
variable        dtime equal (step-0)*dt
thermo_style	custom step time temp ke pe etotal press

run             2500
  update every 20 steps, delay 0 steps, check no
Step Time Temp KinEng PotEng TotEng Press
0            0    1.5018481    2.2521047   -4.0253678    -1.773263    1.3555135
Averages over the last 26 of 51 rows, steps 1250 to 2500:
Temp KinEng PotEng TotEng Press
1.50442 2.25596 -4.02959 -1.77363 1.3481
Loop time of 8.79677 on 1 procs for 2500 steps with 3375 atoms

variable        diff_accum equal 0.177624040185715+0.574334845899717/(3*25)
unfix           fixVACF
write_data      liquid.T1.5.rho0.64.data
System init for write_data ...
print           "" append log.vacf.T1.5.rho0.64.txt screen no

next            loop_counter
jump            SELF loop
clear

pair_style	lj/smooth 2.5 3.0

read_data       liquid.T1.5.rho0.64.data
Reading data file ...
  orthogonal box = (0.0000000 0.0000000 0.0000000) to (17.405958 17.405958 17.405958)
  reading atoms ...
  3375 atoms
  reading velocities ...
  3375 velocities

neighbor	0.3 bin
neigh_modify	every 20 delay 0 check no

fix		1 all nve
timestep        0.002
thermo		50

reset_timestep  0
compute         myVACF all vacf

fix             fixVACF all vector 1 c_myVACF[4]
variable        diff_integ equal dt*trap(f_fixVACF)
variable        curVACF equal c_myVACF[4]

variable        step0 equal step
variable        step0 equal $(v_step0)
variable        step0 equal 0
variable        dtime equal (step-0)*dt
thermo_style	custom step time temp ke pe etotal press

run             2500
  update every 20 steps, delay 0 steps, check no
Step Time Temp KinEng PotEng TotEng Press
0            0    1.4988305    2.2475796    -4.020941   -1.7733614    1.3710293
Averages over the last 26 of 51 rows, steps 1250 to 2500:
Temp KinEng PotEng TotEng Press
1.50508 2.25695 -4.03082 -1.77387 1.3594
Loop time of 8.88792 on 1 procs for 2500 steps with 3375 atoms

variable        diff_accum equal 0.185281838131045+0.63167666684095/(3*25)
unfix           fixVACF
write_data      liquid.T1.5.rho0.64.data
System init for write_data ...
print           "" append log.vacf.T1.5.rho0.64.txt screen no

next            loop_counter
jump            SELF loop
clear

pair_style	lj/smooth 2.5 3.0

read_data       liquid.T1.5.rho0.64.data
Reading data file ...
  orthogonal box = (0.0000000 0.0000000 0.0000000) to (17.405958 17.405958 17.405958)
  reading atoms ...
  3375 atoms
  reading velocities ...
  3375 velocities

neighbor	0.3 bin
neigh_modify	every 20 delay 0 check no

fix		1 all nve
timestep        0.002
thermo		50

reset_timestep  0
compute         myVACF all vacf

fix             fixVACF all vector 1 c_myVACF[4]
variable        diff_integ equal dt*trap(f_fixVACF)
variable        curVACF equal c_myVACF[4]

variable        step0 equal step
variable        step0 equal $(v_step0)
variable        step0 equal 0
variable        dtime equal (step-0)*dt
thermo_style	custom step time temp ke pe etotal press

run             2500
  update every 20 steps, delay 0 steps, check no
Step Time Temp KinEng PotEng TotEng Press
0            0     1.510594    2.2652196   -4.0393203   -1.7741007     1.313753
Averages over the last 26 of 51 rows, steps 1250 to 2500:
Temp KinEng PotEng TotEng Press
1.50329 2.25427 -4.02804 -1.77377 1.34227
Loop time of 8.81178 on 1 procs for 2500 steps with 3375 atoms

variable        diff_accum equal 0.193704193688924+0.564494185285669/(3*25)
unfix           fixVACF
write_data      liquid.T1.5.rho0.64.data
System init for write_data ...
print           "" append log.vacf.T1.5.rho0.64.txt screen no

next            loop_counter
jump            SELF loop
clear

pair_style	lj/smooth 2.5 3.0

read_data       liquid.T1.5.rho0.64.data
Reading data file ...
  orthogonal box = (0.0000000 0.0000000 0.0000000) to (17.405958 17.405958 17.405958)
  reading atoms ...
  3375 atoms
  reading velocities ...
  3375 velocities

neighbor	0.3 bin
neigh_modify	every 20 delay 0 check no

fix		1 all nve
timestep        0.002
thermo		50

reset_timestep  0
compute         myVACF all vacf

fix             fixVACF all vector 1 c_myVACF[4]
variable        diff_integ equal dt*trap(f_fixVACF)
variable        curVACF equal c_myVACF[4]

variable        step0 equal step
variable        step0 equal $(v_step0)
variable        step0 equal 0
variable        dtime equal (step-0)*dt
thermo_style	custom step time temp ke pe etotal press

run             2500
  update every 20 steps, delay 0 steps, check no
Step Time Temp KinEng PotEng TotEng Press
0            0    1.4944386    2.2409937   -4.0145652   -1.7735715    1.3865347
Averages over the last 26 of 51 rows, steps 1250 to 2500:
Temp KinEng PotEng TotEng Press
1.50522 2.25716 -4.03089 -1.77373 1.33986
Loop time of 8.79682 on 1 procs for 2500 steps with 3375 atoms

variable        diff_accum equal 0.201230782826066+0.566169357261469/(3*25)
unfix           fixVACF
write_data      liquid.T1.5.rho0.64.data
System init for write_data ...
print           "" append log.vacf.T1.5.rho0.64.txt screen no

next            loop_counter
jump            SELF loop

Diffusivity estimate (GK): 0.208779707589552
