shell           rm log.sacf.T1.5.rho0.64.txt
units		lj
atom_style	atomic

pair_style	lj/smooth 2.5 3.0

read_data       liquid.T1.5.rho0.64.data
Reading data file ...
  orthogonal box = (0.0000000 0.0000000 0.0000000) to (17.405958 17.405958 17.405958)
  reading atoms ...
  3375 atoms
  reading velocities ...
  3375 velocities

neighbor	0.3 bin
neigh_modify	every 20 delay 0 check no

fix             1 all nve
timestep        0.002

variable        pxy equal pxy
variable        pxz equal pxz
variable        pyz equal pyz

fix             SACF all ave/correlate 5 1000 5000 v_pxy v_pxz v_pyz type auto file log.sacf.gk.T1.5.rho0.64.txt ave running

thermo_style	custom step time temp ke pe etotal press
thermo          200

variable        gkscale equal vol/1.5*5*dt

variable        vxy equal trap(f_SACF[3])*35.15625
variable        vxz equal trap(f_SACF[4])*35.15625
variable        vyz equal trap(f_SACF[5])*35.15625

variable        step0 equal $(step)
variable        step0 equal 0
variable        dtime equal (step-0)*dt
fix             print_shear all print 1 "$(v_dtime) $(pxy) $(pxz) $(pyz)" file log.shear.T1.5.rho0.64.txt screen no title "Time Pxy Pxz Pyz"
run		125000
  update every 20 steps, delay 0 steps, check no
Step Time Temp KinEng PotEng TotEng Press
0            0    1.5090167    2.2628543   -4.0364114    -1.773557     1.328756
Averages over the last 313 of 626 rows, steps 62600 to 125000:
Temp KinEng PotEng TotEng Press
1.50474 2.25645 -4.03019 -1.77375 1.34613
Loop time of 449.062 on 1 procs for 125000 steps with 3375 atoms

write_data      liquid.T1.5.rho0.64.data
System init for write_data ...

variable        eta equal (1.17662878714975+0.18043701964073+0.821148374298294)/3
Viscosity estimate (GK): 0.726071393696258
